data_Co(2,6-NDP)

_cell_length_a  15.47540000
_cell_length_b  15.47540000
_cell_length_c  13.52980000
_cell_angle_alpha  90.00000000
_cell_angle_beta  90.00000000
_cell_angle_gamma  90.00000000


_symmetry_space_group_name_Hall ' P 1'
_symmetry_space_group_name_H-M  'P 1'
_symmetry_Int_Tables_number     1

loop_
_atom_site_label
_atom_site_type_symbol
_atom_site_fract_x
_atom_site_fract_y
_atom_site_fract_z
_atom_site_charge
Co       Co   0.03230000  0.01780000  0.12860000  0.00000000
Co       Co   0.01780000  0.96770000  0.37860000  0.00000000
Co       Co   0.98220000  0.03230000  0.87860000  0.00000000
Co       Co   0.96770000  0.98220000  0.62860000  0.00000000
N        N    0.02620000  0.91480000  0.03950000  0.00000000
N        N    0.91480000  0.97380000  0.28950000  0.00000000
N        N    0.08520000  0.02620000  0.78950000  0.00000000
N        N    0.97380000  0.08520000  0.53950000  0.00000000
N        N    0.92310000  0.02100000  0.20410000  0.00000000
N        N    0.02100000  0.07690000  0.45410000  0.00000000
N        N    0.97900000  0.92310000  0.95410000  0.00000000
N        N    0.07690000  0.97900000  0.70410000  0.00000000
N        N    0.03430000  0.12740000  0.05460000  0.00000000
N        N    0.12740000  0.96570000  0.30460000  0.00000000
N        N    0.87260000  0.03430000  0.80460000  0.00000000
N        N    0.96570000  0.87260000  0.55460000  0.00000000
N        N    0.13290000  0.00390000  0.21450000  0.00000000
N        N    0.00390000  0.86710000  0.46450000  0.00000000
N        N    0.99610000  0.13290000  0.96450000  0.00000000
N        N    0.86710000  0.99610000  0.71450000  0.00000000
C        C    0.03270000  0.83520000  0.05870000  0.00000000
C        C    0.83520000  0.96730000  0.30870000  0.00000000
C        C    0.16480000  0.03270000  0.80870000  0.00000000
C        C    0.96730000  0.16480000  0.55870000  0.00000000
H        H    0.06190000  0.81420000  0.11370000  0.00000000
H        H    0.81420000  0.93810000  0.36370000  0.00000000
H        H    0.18580000  0.06190000  0.86370000  0.00000000
H        H    0.93810000  0.18580000  0.61370000  0.00000000
C        C    0.84080000  0.03620000  0.17660000  0.00000000
C        C    0.03620000  0.15920000  0.42660000  0.00000000
C        C    0.96380000  0.84080000  0.92660000  0.00000000
C        C    0.15920000  0.96380000  0.67660000  0.00000000
H        H    0.82690000  0.06420000  0.11790000  0.00000000
H        H    0.06420000  0.17310000  0.36790000  0.00000000
H        H    0.93580000  0.82690000  0.86790000  0.00000000
H        H    0.17310000  0.93580000  0.61790000  0.00000000
C        C    0.05160000  0.20800000  0.08760000  0.00000000
C        C    0.20800000  0.94840000  0.33760000  0.00000000
C        C    0.79200000  0.05160000  0.83760000  0.00000000
C        C    0.94840000  0.79200000  0.58760000  0.00000000
H        H    0.07700000  0.22160000  0.14800000  0.00000000
H        H    0.22160000  0.92300000  0.39800000  0.00000000
H        H    0.77840000  0.07700000  0.89800000  0.00000000
H        H    0.92300000  0.77840000  0.64800000  0.00000000
C        C    0.02640000  0.26530000  0.01910000  0.00000000
C        C    0.26530000  0.97360000  0.26910000  0.00000000
C        C    0.73470000  0.02640000  0.76910000  0.00000000
C        C    0.97360000  0.73470000  0.51910000  0.00000000
C        C    0.01560000  0.36080000  0.03140000  0.00000000
C        C    0.36080000  0.98440000  0.28140000  0.00000000
C        C    0.63920000  0.01560000  0.78140000  0.00000000
C        C    0.98440000  0.63920000  0.53140000  0.00000000
C        C    0.97700000  0.41390000  0.95940000  0.00000000
C        C    0.41390000  0.02300000  0.20940000  0.00000000
C        C    0.58610000  0.97700000  0.70940000  0.00000000
C        C    0.02300000  0.58610000  0.45940000  0.00000000
H        H    0.94870000  0.38840000  0.90620000  0.00000000
H        H    0.38840000  0.05130000  0.15620000  0.00000000
H        H    0.61160000  0.94870000  0.65620000  0.00000000
H        H    0.05130000  0.61160000  0.40620000  0.00000000
C        C    0.05770000  0.40480000  0.11050000  0.00000000
C        C    0.40480000  0.94230000  0.36050000  0.00000000
C        C    0.59520000  0.05770000  0.86050000  0.00000000
C        C    0.94230000  0.59520000  0.61050000  0.00000000
H        H    0.08350000  0.37120000  0.15930000  0.00000000
H        H    0.37120000  0.91650000  0.40930000  0.00000000
H        H    0.62880000  0.08350000  0.90930000  0.00000000
H        H    0.91650000  0.62880000  0.65930000  0.00000000
C        C    0.06310000  0.49410000  0.12050000  0.00000000
C        C    0.49410000  0.93690000  0.37050000  0.00000000
C        C    0.50590000  0.06310000  0.87050000  0.00000000
C        C    0.93690000  0.50590000  0.62050000  0.00000000
H        H    0.08910000  0.51890000  0.17560000  0.00000000
H        H    0.51890000  0.91090000  0.42560000  0.00000000
H        H    0.48110000  0.08910000  0.92560000  0.00000000
H        H    0.91090000  0.48110000  0.67560000  0.00000000
C        C    0.02800000  0.54600000  0.04480000  0.00000000
C        C    0.54600000  0.97200000  0.29480000  0.00000000
C        C    0.45400000  0.02800000  0.79480000  0.00000000
C        C    0.97200000  0.45400000  0.54480000  0.00000000
C        C    0.98020000  0.50540000  0.96590000  0.00000000
C        C    0.50540000  0.01980000  0.21590000  0.00000000
C        C    0.49460000  0.98020000  0.71590000  0.00000000
C        C    0.01980000  0.49460000  0.46590000  0.00000000
C        C    0.93630000  0.56080000  0.90230000  0.00000000
C        C    0.56080000  0.06370000  0.15230000  0.00000000
C        C    0.43920000  0.93630000  0.65230000  0.00000000
C        C    0.06370000  0.43920000  0.40230000  0.00000000
H        H    0.90430000  0.53560000  0.85170000  0.00000000
H        H    0.53560000  0.09570000  0.10170000  0.00000000
H        H    0.46440000  0.90430000  0.60170000  0.00000000
H        H    0.09570000  0.46440000  0.35170000  0.00000000
C        C    0.93610000  0.64850000  0.90750000  0.00000000
C        C    0.64850000  0.06390000  0.15750000  0.00000000
C        C    0.35150000  0.93610000  0.65750000  0.00000000
C        C    0.06390000  0.35150000  0.40750000  0.00000000
H        H    0.90600000  0.68160000  0.86160000  0.00000000
H        H    0.68160000  0.09400000  0.11160000  0.00000000
H        H    0.31840000  0.90600000  0.61160000  0.00000000
H        H    0.09400000  0.31840000  0.36160000  0.00000000
C        C    0.02470000  0.63650000  0.05350000  0.00000000
C        C    0.63650000  0.97530000  0.30350000  0.00000000
C        C    0.36350000  0.02470000  0.80350000  0.00000000
C        C    0.97530000  0.36350000  0.55350000  0.00000000
H        H    0.05140000  0.66300000  0.10710000  0.00000000
H        H    0.66300000  0.94860000  0.35710000  0.00000000
H        H    0.33700000  0.05140000  0.85710000  0.00000000
H        H    0.94860000  0.33700000  0.60710000  0.00000000
C        C    0.22140000  0.01570000  0.19140000  0.00000000
C        C    0.01570000  0.77860000  0.44140000  0.00000000
C        C    0.98430000  0.22140000  0.94140000  0.00000000
C        C    0.77860000  0.98430000  0.69140000  0.00000000
H        H    0.24500000  0.04450000  0.13750000  0.00000000
H        H    0.04450000  0.75500000  0.38750000  0.00000000
H        H    0.95550000  0.24500000  0.88750000  0.00000000
H        H    0.75500000  0.95550000  0.63750000  0.00000000
C        C    0.98240000  0.68700000  0.98410000  0.00000000
C        C    0.68700000  0.01760000  0.23410000  0.00000000
C        C    0.31300000  0.98240000  0.73410000  0.00000000
C        C    0.01760000  0.31300000  0.48410000  0.00000000
C        C    0.99160000  0.78080000  0.98930000  0.00000000
C        C    0.78080000  0.00840000  0.23930000  0.00000000
C        C    0.21920000  0.99160000  0.73930000  0.00000000
C        C    0.00840000  0.21920000  0.48930000  0.00000000
