data_COF-5

_cell_length_a  30.01980000
_cell_length_b  30.01980000
_cell_length_c  3.40400000
_cell_angle_alpha  90.00000000
_cell_angle_beta  90.00000000
_cell_angle_gamma  120.00000000


_symmetry_space_group_name_Hall ' P 1'
_symmetry_space_group_name_H-M  'P 1'
_symmetry_Int_Tables_number     1

loop_
_atom_site_label
_atom_site_type_symbol
_atom_site_fract_x
_atom_site_fract_y
_atom_site_fract_z
_atom_site_charge
B        B    0.11357000  0.55679000  0.50000000  0.00000000
B        B    0.44322000  0.88643000  0.50000000  0.00000000
B        B    0.55679000  0.11357000  0.50000000  0.00000000
B        B    0.55678000  0.44321000  0.50000000  0.00000000
B        B    0.88643000  0.44321000  0.50000000  0.00000000
B        B    0.44322000  0.55679000  0.50000000  0.00000000
O        O    0.61305000  0.14429000  0.50000000  0.00000000
O        O    0.46876000  0.85571000  0.50000000  0.00000000
O        O    0.53124000  0.14429000  0.50000000  0.00000000
O        O    0.14429000  0.61305000  0.50000000  0.00000000
O        O    0.61305000  0.46876000  0.50000000  0.00000000
O        O    0.38695000  0.85571000  0.50000000  0.00000000
O        O    0.53124000  0.38695000  0.50000000  0.00000000
O        O    0.85571000  0.38695000  0.50000000  0.00000000
O        O    0.46876000  0.61305000  0.50000000  0.00000000
O        O    0.14429000  0.53124000  0.50000000  0.00000000
O        O    0.38695000  0.53124000  0.50000000  0.00000000
O        O    0.85571000  0.46876000  0.50000000  0.00000000
C        C    0.94617000  0.47308000  0.50000000  0.00000000
C        C    0.52691000  0.05383000  0.50000000  0.00000000
C        C    0.47308000  0.94617000  0.50000000  0.00000000
C        C    0.47309000  0.52692000  0.50000000  0.00000000
C        C    0.05383000  0.52692000  0.50000000  0.00000000
C        C    0.52691000  0.47308000  0.50000000  0.00000000
C        C    0.47312000  0.02688000  0.50000000  0.00000000
C        C    0.44624000  0.97312000  0.50000000  0.00000000
C        C    0.55376000  0.02688000  0.50000000  0.00000000
C        C    0.02688000  0.47312000  0.50000000  0.00000000
C        C    0.47312000  0.44624000  0.50000000  0.00000000
C        C    0.52688000  0.97312000  0.50000000  0.00000000
C        C    0.55376000  0.52688000  0.50000000  0.00000000
C        C    0.97312000  0.52688000  0.50000000  0.00000000
C        C    0.44624000  0.47312000  0.50000000  0.00000000
C        C    0.02688000  0.55376000  0.50000000  0.00000000
C        C    0.52688000  0.55376000  0.50000000  0.00000000
C        C    0.97312000  0.44624000  0.50000000  0.00000000
C        C    0.61950000  0.19328000  0.50000000  0.00000000
C        C    0.42622000  0.80672000  0.50000000  0.00000000
C        C    0.57378000  0.19328000  0.50000000  0.00000000
C        C    0.19328000  0.61950000  0.50000000  0.00000000
C        C    0.61950000  0.42622000  0.50000000  0.00000000
C        C    0.38050000  0.80672000  0.50000000  0.00000000
C        C    0.57378000  0.38050000  0.50000000  0.00000000
C        C    0.80672000  0.38050000  0.50000000  0.00000000
C        C    0.42622000  0.61950000  0.50000000  0.00000000
C        C    0.19328000  0.57378000  0.50000000  0.00000000
C        C    0.38050000  0.57378000  0.50000000  0.00000000
C        C    0.80672000  0.42622000  0.50000000  0.00000000
C        C    0.66641000  0.23896000  0.50000000  0.00000000
C        C    0.42745000  0.76104000  0.50000000  0.00000000
C        C    0.57255000  0.23896000  0.50000000  0.00000000
C        C    0.23896000  0.66641000  0.50000000  0.00000000
C        C    0.66641000  0.42745000  0.50000000  0.00000000
C        C    0.33359000  0.76104000  0.50000000  0.00000000
C        C    0.57255000  0.33359000  0.50000000  0.00000000
C        C    0.76104000  0.33359000  0.50000000  0.00000000
C        C    0.42745000  0.66641000  0.50000000  0.00000000
C        C    0.23896000  0.57255000  0.50000000  0.00000000
C        C    0.33359000  0.57255000  0.50000000  0.00000000
C        C    0.76104000  0.42745000  0.50000000  0.00000000
C        C    0.66687000  0.28621000  0.50000000  0.00000000
C        C    0.38066000  0.71379000  0.50000000  0.00000000
C        C    0.61934000  0.28621000  0.50000000  0.00000000
C        C    0.28621000  0.66687000  0.50000000  0.00000000
C        C    0.66687000  0.38066000  0.50000000  0.00000000
C        C    0.33313000  0.71379000  0.50000000  0.00000000
C        C    0.61934000  0.33313000  0.50000000  0.00000000
C        C    0.71379000  0.33313000  0.50000000  0.00000000
C        C    0.38066000  0.66687000  0.50000000  0.00000000
C        C    0.28621000  0.61934000  0.50000000  0.00000000
C        C    0.33313000  0.61934000  0.50000000  0.00000000
C        C    0.71379000  0.38066000  0.50000000  0.00000000
H        H    0.45252000  0.40508000  0.50000000  0.00000000
H        H    0.04744000  0.59492000  0.50000000  0.00000000
H        H    0.95256000  0.40508000  0.50000000  0.00000000
H        H    0.40508000  0.45252000  0.50000000  0.00000000
H        H    0.45252000  0.04744000  0.50000000  0.00000000
H        H    0.54748000  0.59492000  0.50000000  0.00000000
H        H    0.95256000  0.54748000  0.50000000  0.00000000
H        H    0.59492000  0.54748000  0.50000000  0.00000000
H        H    0.04744000  0.45252000  0.50000000  0.00000000
H        H    0.40508000  0.95256000  0.50000000  0.00000000
H        H    0.54748000  0.95256000  0.50000000  0.00000000
H        H    0.59492000  0.04744000  0.50000000  0.00000000
H        H    0.53659000  0.29828000  0.50000000  0.00000000
H        H    0.23831000  0.70172000  0.50000000  0.00000000
H        H    0.76169000  0.29828000  0.50000000  0.00000000
H        H    0.29828000  0.53659000  0.50000000  0.00000000
H        H    0.53659000  0.23831000  0.50000000  0.00000000
H        H    0.46341000  0.70172000  0.50000000  0.00000000
H        H    0.76169000  0.46341000  0.50000000  0.00000000
H        H    0.70172000  0.46341000  0.50000000  0.00000000
H        H    0.23831000  0.53659000  0.50000000  0.00000000
H        H    0.29828000  0.76169000  0.50000000  0.00000000
H        H    0.46341000  0.76169000  0.50000000  0.00000000
H        H    0.70172000  0.23831000  0.50000000  0.00000000
