data_COF-1

_cell_length_a  15.65290000
_cell_length_b  15.65290000
_cell_length_c  6.70050000
_cell_angle_alpha  90.00000000
_cell_angle_beta  90.00000000
_cell_angle_gamma  120.00000000


_symmetry_space_group_name_Hall ' P 1'
_symmetry_space_group_name_H-M  'P 1'
_symmetry_Int_Tables_number     1

loop_
_atom_site_label
_atom_site_type_symbol
_atom_site_fract_x
_atom_site_fract_y
_atom_site_fract_z
_atom_site_charge
B        B    0.94228000  0.88457000  0.75000000  0.00000000
B        B    0.05771000  0.11543000  0.25000000  0.00000000
B        B    0.11543000  0.05771000  0.75000000  0.00000000
B        B    0.05771000  0.94228000  0.25000000  0.00000000
B        B    0.88457000  0.94228000  0.25000000  0.00000000
B        B    0.94228000  0.05771000  0.75000000  0.00000000
B        B    0.44466000  0.72233000  0.25000000  0.00000000
B        B    0.72233000  0.44466000  0.75000000  0.00000000
B        B    0.27767000  0.72233000  0.25000000  0.00000000
B        B    0.72233000  0.27767000  0.75000000  0.00000000
B        B    0.27767000  0.55534000  0.25000000  0.00000000
B        B    0.55534000  0.27767000  0.75000000  0.00000000
O        O    0.11133000  0.05567000  0.25000000  0.00000000
O        O    0.05566000  0.11133000  0.75000000  0.00000000
O        O    0.94434000  0.05567000  0.25000000  0.00000000
O        O    0.05567000  0.94434000  0.75000000  0.00000000
O        O    0.94433000  0.88867000  0.25000000  0.00000000
O        O    0.88867000  0.94434000  0.75000000  0.00000000
O        O    0.61100000  0.22200000  0.75000000  0.00000000
O        O    0.38900000  0.77800000  0.25000000  0.00000000
O        O    0.77800000  0.38900000  0.75000000  0.00000000
O        O    0.38900000  0.61100000  0.25000000  0.00000000
O        O    0.22200000  0.61100000  0.25000000  0.00000000
O        O    0.61100000  0.38900000  0.75000000  0.00000000
C        C    0.72823000  0.61639000  0.75000000  0.00000000
C        C    0.11184000  0.72823000  0.25000000  0.00000000
C        C    0.88816000  0.61639000  0.75000000  0.00000000
C        C    0.11184000  0.38361000  0.25000000  0.00000000
C        C    0.61639000  0.72823000  0.25000000  0.00000000
C        C    0.38361000  0.11184000  0.75000000  0.00000000
C        C    0.72823000  0.11184000  0.75000000  0.00000000
C        C    0.27177000  0.38361000  0.25000000  0.00000000
C        C    0.38361000  0.27177000  0.75000000  0.00000000
C        C    0.27177000  0.88816000  0.25000000  0.00000000
C        C    0.61639000  0.88816000  0.25000000  0.00000000
C        C    0.88816000  0.27177000  0.75000000  0.00000000
C        C    0.78136000  0.56272000  0.75000000  0.00000000
C        C    0.21864000  0.43728000  0.25000000  0.00000000
C        C    0.43728000  0.21864000  0.75000000  0.00000000
C        C    0.21864000  0.78136000  0.25000000  0.00000000
C        C    0.56272000  0.78136000  0.25000000  0.00000000
C        C    0.78136000  0.21864000  0.75000000  0.00000000
C        C    0.94152000  0.72315000  0.75000000  0.00000000
C        C    0.21837000  0.94152000  0.25000000  0.00000000
C        C    0.78163000  0.72315000  0.75000000  0.00000000
C        C    0.21837000  0.27685000  0.25000000  0.00000000
C        C    0.72315000  0.94152000  0.25000000  0.00000000
C        C    0.27685000  0.21837000  0.75000000  0.00000000
C        C    0.94152000  0.21837000  0.75000000  0.00000000
C        C    0.05848000  0.27685000  0.25000000  0.00000000
C        C    0.27685000  0.05848000  0.75000000  0.00000000
C        C    0.05848000  0.78163000  0.25000000  0.00000000
C        C    0.72315000  0.78163000  0.25000000  0.00000000
C        C    0.78163000  0.05848000  0.75000000  0.00000000
C        C    0.11030000  0.22060000  0.25000000  0.00000000
C        C    0.88970000  0.11030000  0.75000000  0.00000000
C        C    0.22060000  0.11030000  0.75000000  0.00000000
C        C    0.77940000  0.88970000  0.25000000  0.00000000
C        C    0.11030000  0.88970000  0.25000000  0.00000000
C        C    0.88970000  0.77940000  0.75000000  0.00000000
H        H    0.64930000  0.07227000  0.75000000  0.00000000
H        H    0.57703000  0.64930000  0.25000000  0.00000000
H        H    0.42297000  0.07227000  0.75000000  0.00000000
H        H    0.57703000  0.92773000  0.25000000  0.00000000
H        H    0.07227000  0.64930000  0.25000000  0.00000000
H        H    0.92773000  0.57703000  0.75000000  0.00000000
H        H    0.64930000  0.57703000  0.75000000  0.00000000
H        H    0.35070000  0.92773000  0.25000000  0.00000000
H        H    0.92773000  0.35070000  0.75000000  0.00000000
H        H    0.35070000  0.42297000  0.25000000  0.00000000
H        H    0.07227000  0.42297000  0.25000000  0.00000000
H        H    0.42297000  0.35070000  0.75000000  0.00000000
H        H    0.25864000  0.23819000  0.25000000  0.00000000
H        H    0.02045000  0.25864000  0.75000000  0.00000000
H        H    0.97955000  0.23819000  0.25000000  0.00000000
H        H    0.02045000  0.76181000  0.75000000  0.00000000
H        H    0.23819000  0.25864000  0.75000000  0.00000000
H        H    0.76181000  0.02045000  0.25000000  0.00000000
H        H    0.25864000  0.02045000  0.25000000  0.00000000
H        H    0.74136000  0.76181000  0.75000000  0.00000000
H        H    0.76181000  0.74136000  0.25000000  0.00000000
H        H    0.74136000  0.97955000  0.75000000  0.00000000
H        H    0.23819000  0.97955000  0.75000000  0.00000000
H        H    0.97955000  0.74136000  0.25000000  0.00000000
