data_COF-300

_cell_length_a  28.12700000
_cell_length_b  28.12700000
_cell_length_c  8.87900000
_cell_angle_alpha  90.00000000
_cell_angle_beta  90.00000000
_cell_angle_gamma  90.00000000


_symmetry_space_group_name_Hall ' P 1'
_symmetry_space_group_name_H-M  'P 1'
_symmetry_Int_Tables_number     1

loop_
_atom_site_label
_atom_site_type_symbol
_atom_site_fract_x
_atom_site_fract_y
_atom_site_fract_z
_atom_site_charge
C        C    0.00000000  0.25000000  0.12500000  0.00000000
C        C    0.50000000  0.75000000  0.62500000  0.00000000
C        C    0.50000000  0.25000000  0.37500000  0.00000000
C        C    0.00000000  0.75000000  0.87500000  0.00000000
C        C    0.46180000  0.96990000  0.97510000  0.00000000
C        C    0.21990000  0.78820000  0.22510000  0.00000000
C        C    0.78010000  0.71180000  0.22510000  0.00000000
C        C    0.53820000  0.53010000  0.97510000  0.00000000
C        C    0.28010000  0.21180000  0.72510000  0.00000000
C        C    0.71990000  0.28820000  0.72510000  0.00000000
C        C    0.96180000  0.96990000  0.52490000  0.00000000
C        C    0.46180000  0.46990000  0.02490000  0.00000000
C        C    0.21990000  0.28820000  0.77490000  0.00000000
C        C    0.96180000  0.46990000  0.47510000  0.00000000
C        C    0.03820000  0.03010000  0.47510000  0.00000000
C        C    0.71990000  0.78820000  0.27490000  0.00000000
C        C    0.53820000  0.03010000  0.02490000  0.00000000
C        C    0.03820000  0.53010000  0.52490000  0.00000000
C        C    0.28010000  0.71180000  0.27490000  0.00000000
C        C    0.78010000  0.21180000  0.77490000  0.00000000
C        C    0.49370000  0.95870000  0.07720000  0.00000000
C        C    0.20870000  0.75630000  0.32720000  0.00000000
C        C    0.79130000  0.74370000  0.32720000  0.00000000
C        C    0.50630000  0.54130000  0.07720000  0.00000000
C        C    0.29130000  0.24370000  0.82720000  0.00000000
C        C    0.70870000  0.25630000  0.82720000  0.00000000
C        C    0.99370000  0.95870000  0.42280000  0.00000000
C        C    0.49370000  0.45870000  0.92280000  0.00000000
C        C    0.20870000  0.25630000  0.67280000  0.00000000
C        C    0.99370000  0.45870000  0.57720000  0.00000000
C        C    0.00630000  0.04130000  0.57720000  0.00000000
C        C    0.70870000  0.75630000  0.17280000  0.00000000
C        C    0.50630000  0.04130000  0.92280000  0.00000000
C        C    0.00630000  0.54130000  0.42280000  0.00000000
C        C    0.29130000  0.74370000  0.17280000  0.00000000
C        C    0.79130000  0.24370000  0.67280000  0.00000000
C        C    0.48640000  0.91800000  0.15310000  0.00000000
C        C    0.16800000  0.76360000  0.40310000  0.00000000
C        C    0.83200000  0.73640000  0.40310000  0.00000000
C        C    0.51360000  0.58200000  0.15310000  0.00000000
C        C    0.33200000  0.23640000  0.90310000  0.00000000
C        C    0.66800000  0.26360000  0.90310000  0.00000000
C        C    0.98640000  0.91800000  0.34690000  0.00000000
C        C    0.48640000  0.41800000  0.84690000  0.00000000
C        C    0.16800000  0.26360000  0.59690000  0.00000000
C        C    0.98640000  0.41800000  0.65310000  0.00000000
C        C    0.01360000  0.08200000  0.65310000  0.00000000
C        C    0.66800000  0.76360000  0.09690000  0.00000000
C        C    0.51360000  0.08200000  0.84690000  0.00000000
C        C    0.01360000  0.58200000  0.34690000  0.00000000
C        C    0.33200000  0.73640000  0.09690000  0.00000000
C        C    0.83200000  0.23640000  0.59690000  0.00000000
C        C    0.53200000  0.98930000  0.10130000  0.00000000
C        C    0.23930000  0.71800000  0.35130000  0.00000000
C        C    0.76070000  0.78200000  0.35130000  0.00000000
C        C    0.46800000  0.51070000  0.10130000  0.00000000
C        C    0.26070000  0.28200000  0.85130000  0.00000000
C        C    0.73930000  0.21800000  0.85130000  0.00000000
C        C    0.03200000  0.98930000  0.39870000  0.00000000
C        C    0.53200000  0.48930000  0.89870000  0.00000000
C        C    0.23930000  0.21800000  0.64870000  0.00000000
C        C    0.03200000  0.48930000  0.60130000  0.00000000
C        C    0.96800000  0.01070000  0.60130000  0.00000000
C        C    0.73930000  0.71800000  0.14870000  0.00000000
C        C    0.46800000  0.01070000  0.89870000  0.00000000
C        C    0.96800000  0.51070000  0.39870000  0.00000000
C        C    0.26070000  0.78200000  0.14870000  0.00000000
C        C    0.76070000  0.28200000  0.64870000  0.00000000
N        N    0.51670000  0.90600000  0.25160000  0.00000000
N        N    0.15600000  0.73330000  0.50160000  0.00000000
N        N    0.84400000  0.76670000  0.50160000  0.00000000
N        N    0.48330000  0.59400000  0.25160000  0.00000000
N        N    0.34400000  0.26670000  0.00160000  0.00000000
N        N    0.65600000  0.23330000  0.00160000  0.00000000
N        N    0.01670000  0.90600000  0.24840000  0.00000000
N        N    0.51670000  0.40600000  0.74840000  0.00000000
N        N    0.15600000  0.23330000  0.49840000  0.00000000
N        N    0.01670000  0.40600000  0.75160000  0.00000000
N        N    0.98330000  0.09400000  0.75160000  0.00000000
N        N    0.65600000  0.73330000  0.99840000  0.00000000
N        N    0.48330000  0.09400000  0.74840000  0.00000000
N        N    0.98330000  0.59400000  0.24840000  0.00000000
N        N    0.34400000  0.76670000  0.99840000  0.00000000
N        N    0.84400000  0.26670000  0.49840000  0.00000000
C        C    0.51190000  0.86670000  0.34080000  0.00000000
C        C    0.11670000  0.73810000  0.59080000  0.00000000
C        C    0.88330000  0.76190000  0.59080000  0.00000000
C        C    0.48810000  0.63330000  0.34080000  0.00000000
C        C    0.38330000  0.26190000  0.09080000  0.00000000
C        C    0.61670000  0.23810000  0.09080000  0.00000000
C        C    0.01190000  0.86670000  0.15920000  0.00000000
C        C    0.51190000  0.36670000  0.65920000  0.00000000
C        C    0.11670000  0.23810000  0.40920000  0.00000000
C        C    0.01190000  0.36670000  0.84080000  0.00000000
C        C    0.98810000  0.13330000  0.84080000  0.00000000
C        C    0.61670000  0.73810000  0.90920000  0.00000000
C        C    0.48810000  0.13330000  0.65920000  0.00000000
C        C    0.98810000  0.63330000  0.15920000  0.00000000
C        C    0.38330000  0.76190000  0.90920000  0.00000000
C        C    0.88330000  0.26190000  0.40920000  0.00000000
C        C    0.55130000  0.85290000  0.41480000  0.00000000
C        C    0.10290000  0.69870000  0.66480000  0.00000000
C        C    0.89710000  0.80130000  0.66480000  0.00000000
C        C    0.44870000  0.64710000  0.41480000  0.00000000
C        C    0.39710000  0.30130000  0.16480000  0.00000000
C        C    0.60290000  0.19870000  0.16480000  0.00000000
C        C    0.05130000  0.85290000  0.08520000  0.00000000
C        C    0.55130000  0.35290000  0.58520000  0.00000000
C        C    0.10290000  0.19870000  0.33520000  0.00000000
C        C    0.05130000  0.35290000  0.91480000  0.00000000
C        C    0.94870000  0.14710000  0.91480000  0.00000000
C        C    0.60290000  0.69870000  0.83520000  0.00000000
C        C    0.44870000  0.14710000  0.58520000  0.00000000
C        C    0.94870000  0.64710000  0.08520000  0.00000000
C        C    0.39710000  0.80130000  0.83520000  0.00000000
C        C    0.89710000  0.30130000  0.33520000  0.00000000
C        C    0.54820000  0.81580000  0.50610000  0.00000000
C        C    0.06580000  0.70180000  0.75610000  0.00000000
C        C    0.93420000  0.79820000  0.75610000  0.00000000
C        C    0.45180000  0.68420000  0.50610000  0.00000000
C        C    0.43420000  0.29820000  0.25610000  0.00000000
C        C    0.56580000  0.20180000  0.25610000  0.00000000
C        C    0.04820000  0.81580000  0.99390000  0.00000000
C        C    0.54820000  0.31580000  0.49390000  0.00000000
C        C    0.06580000  0.20180000  0.24390000  0.00000000
C        C    0.04820000  0.31580000  0.00610000  0.00000000
C        C    0.95180000  0.18420000  0.00610000  0.00000000
C        C    0.56580000  0.70180000  0.74390000  0.00000000
C        C    0.45180000  0.18420000  0.49390000  0.00000000
C        C    0.95180000  0.68420000  0.99390000  0.00000000
C        C    0.43420000  0.79820000  0.74390000  0.00000000
C        C    0.93420000  0.29820000  0.24390000  0.00000000
C        C    0.50470000  0.79270000  0.52960000  0.00000000
C        C    0.04270000  0.74530000  0.77960000  0.00000000
C        C    0.95730000  0.75470000  0.77960000  0.00000000
C        C    0.49530000  0.70730000  0.52960000  0.00000000
C        C    0.45730000  0.25470000  0.27960000  0.00000000
C        C    0.54270000  0.24530000  0.27960000  0.00000000
C        C    0.00470000  0.79270000  0.97040000  0.00000000
C        C    0.50470000  0.29270000  0.47040000  0.00000000
C        C    0.04270000  0.24530000  0.22040000  0.00000000
C        C    0.00470000  0.29270000  0.02960000  0.00000000
C        C    0.99530000  0.20730000  0.02960000  0.00000000
C        C    0.54270000  0.74530000  0.72040000  0.00000000
C        C    0.49530000  0.20730000  0.47040000  0.00000000
C        C    0.99530000  0.70730000  0.97040000  0.00000000
C        C    0.45730000  0.75470000  0.72040000  0.00000000
C        C    0.95730000  0.25470000  0.22040000  0.00000000
C        C    0.46570000  0.80570000  0.45020000  0.00000000
C        C    0.05570000  0.78430000  0.70020000  0.00000000
C        C    0.94430000  0.71570000  0.70020000  0.00000000
C        C    0.53430000  0.69430000  0.45020000  0.00000000
C        C    0.44430000  0.21570000  0.20020000  0.00000000
C        C    0.55570000  0.28430000  0.20020000  0.00000000
C        C    0.96570000  0.80570000  0.04980000  0.00000000
C        C    0.46570000  0.30570000  0.54980000  0.00000000
C        C    0.05570000  0.28430000  0.29980000  0.00000000
C        C    0.96570000  0.30570000  0.95020000  0.00000000
C        C    0.03430000  0.19430000  0.95020000  0.00000000
C        C    0.55570000  0.78430000  0.79980000  0.00000000
C        C    0.53430000  0.19430000  0.54980000  0.00000000
C        C    0.03430000  0.69430000  0.04980000  0.00000000
C        C    0.44430000  0.71570000  0.79980000  0.00000000
C        C    0.94430000  0.21570000  0.29980000  0.00000000
C        C    0.46890000  0.84260000  0.35880000  0.00000000
C        C    0.09260000  0.78110000  0.60880000  0.00000000
C        C    0.90740000  0.71890000  0.60880000  0.00000000
C        C    0.53110000  0.65740000  0.35880000  0.00000000
C        C    0.40740000  0.21890000  0.10880000  0.00000000
C        C    0.59260000  0.28110000  0.10880000  0.00000000
C        C    0.96890000  0.84260000  0.14120000  0.00000000
C        C    0.46890000  0.34260000  0.64120000  0.00000000
C        C    0.09260000  0.28110000  0.39120000  0.00000000
C        C    0.96890000  0.34260000  0.85880000  0.00000000
C        C    0.03110000  0.15740000  0.85880000  0.00000000
C        C    0.59260000  0.78110000  0.89120000  0.00000000
C        C    0.53110000  0.15740000  0.64120000  0.00000000
C        C    0.03110000  0.65740000  0.14120000  0.00000000
C        C    0.40740000  0.71890000  0.89120000  0.00000000
C        C    0.90740000  0.21890000  0.39120000  0.00000000
H        H    0.43180000  0.94710000  0.95410000  0.00000000
H        H    0.19710000  0.81820000  0.20410000  0.00000000
H        H    0.80290000  0.68180000  0.20410000  0.00000000
H        H    0.56820000  0.55290000  0.95410000  0.00000000
H        H    0.30290000  0.18180000  0.70410000  0.00000000
H        H    0.69710000  0.31820000  0.70410000  0.00000000
H        H    0.93180000  0.94710000  0.54590000  0.00000000
H        H    0.43180000  0.44710000  0.04590000  0.00000000
H        H    0.19710000  0.31820000  0.79590000  0.00000000
H        H    0.93180000  0.44710000  0.45410000  0.00000000
H        H    0.06820000  0.05290000  0.45410000  0.00000000
H        H    0.69710000  0.81820000  0.29590000  0.00000000
H        H    0.56820000  0.05290000  0.04590000  0.00000000
H        H    0.06820000  0.55290000  0.54590000  0.00000000
H        H    0.30290000  0.68180000  0.29590000  0.00000000
H        H    0.80290000  0.18180000  0.79590000  0.00000000
H        H    0.45630000  0.89570000  0.13110000  0.00000000
H        H    0.14570000  0.79370000  0.38110000  0.00000000
H        H    0.85430000  0.70630000  0.38110000  0.00000000
H        H    0.54370000  0.60430000  0.13110000  0.00000000
H        H    0.35430000  0.20630000  0.88110000  0.00000000
H        H    0.64570000  0.29370000  0.88110000  0.00000000
H        H    0.95630000  0.89570000  0.36890000  0.00000000
H        H    0.45630000  0.39570000  0.86890000  0.00000000
H        H    0.14570000  0.29370000  0.61890000  0.00000000
H        H    0.95630000  0.39570000  0.63110000  0.00000000
H        H    0.04370000  0.10430000  0.63110000  0.00000000
H        H    0.64570000  0.79370000  0.11890000  0.00000000
H        H    0.54370000  0.10430000  0.86890000  0.00000000
H        H    0.04370000  0.60430000  0.36890000  0.00000000
H        H    0.35430000  0.70630000  0.11890000  0.00000000
H        H    0.85430000  0.20630000  0.61890000  0.00000000
H        H    0.55740000  0.98190000  0.17920000  0.00000000
H        H    0.23190000  0.69260000  0.42920000  0.00000000
H        H    0.76810000  0.80740000  0.42920000  0.00000000
H        H    0.44260000  0.51810000  0.17920000  0.00000000
H        H    0.26810000  0.30740000  0.92920000  0.00000000
H        H    0.73190000  0.19260000  0.92920000  0.00000000
H        H    0.05740000  0.98190000  0.32080000  0.00000000
H        H    0.55740000  0.48190000  0.82080000  0.00000000
H        H    0.23190000  0.19260000  0.57080000  0.00000000
H        H    0.05740000  0.48190000  0.67920000  0.00000000
H        H    0.94260000  0.01810000  0.67920000  0.00000000
H        H    0.73190000  0.69260000  0.07080000  0.00000000
H        H    0.44260000  0.01810000  0.82080000  0.00000000
H        H    0.94260000  0.51810000  0.32080000  0.00000000
H        H    0.26810000  0.80740000  0.07080000  0.00000000
H        H    0.76810000  0.30740000  0.57080000  0.00000000
H        H    0.58490000  0.87060000  0.40040000  0.00000000
H        H    0.12060000  0.66510000  0.65040000  0.00000000
H        H    0.87940000  0.83490000  0.65040000  0.00000000
H        H    0.41510000  0.62940000  0.40040000  0.00000000
H        H    0.37940000  0.33490000  0.15040000  0.00000000
H        H    0.62060000  0.16510000  0.15040000  0.00000000
H        H    0.08490000  0.87060000  0.09960000  0.00000000
H        H    0.58490000  0.37060000  0.59960000  0.00000000
H        H    0.12060000  0.16510000  0.34960000  0.00000000
H        H    0.08490000  0.37060000  0.90040000  0.00000000
H        H    0.91510000  0.12940000  0.90040000  0.00000000
H        H    0.62060000  0.66510000  0.84960000  0.00000000
H        H    0.41510000  0.12940000  0.59960000  0.00000000
H        H    0.91510000  0.62940000  0.09960000  0.00000000
H        H    0.37940000  0.83490000  0.84960000  0.00000000
H        H    0.87940000  0.33490000  0.34960000  0.00000000
H        H    0.58030000  0.80520000  0.55560000  0.00000000
H        H    0.05520000  0.66970000  0.80560000  0.00000000
H        H    0.94480000  0.83030000  0.80560000  0.00000000
H        H    0.41970000  0.69480000  0.55560000  0.00000000
H        H    0.44480000  0.33030000  0.30560000  0.00000000
H        H    0.55520000  0.16970000  0.30560000  0.00000000
H        H    0.08030000  0.80520000  0.94440000  0.00000000
H        H    0.58030000  0.30520000  0.44440000  0.00000000
H        H    0.05520000  0.16970000  0.19440000  0.00000000
H        H    0.08030000  0.30520000  0.05560000  0.00000000
H        H    0.91970000  0.19480000  0.05560000  0.00000000
H        H    0.55520000  0.66970000  0.69440000  0.00000000
H        H    0.41970000  0.19480000  0.44440000  0.00000000
H        H    0.91970000  0.69480000  0.94440000  0.00000000
H        H    0.44480000  0.83030000  0.69440000  0.00000000
H        H    0.94480000  0.33030000  0.19440000  0.00000000
H        H    0.43220000  0.78740000  0.46040000  0.00000000
H        H    0.03740000  0.81780000  0.71040000  0.00000000
H        H    0.96260000  0.68220000  0.71040000  0.00000000
H        H    0.56780000  0.71260000  0.46040000  0.00000000
H        H    0.46260000  0.18220000  0.21040000  0.00000000
H        H    0.53740000  0.31780000  0.21040000  0.00000000
H        H    0.93220000  0.78740000  0.03960000  0.00000000
H        H    0.43220000  0.28740000  0.53960000  0.00000000
H        H    0.03740000  0.31780000  0.28960000  0.00000000
H        H    0.93220000  0.28740000  0.96040000  0.00000000
H        H    0.06780000  0.21260000  0.96040000  0.00000000
H        H    0.53740000  0.81780000  0.78960000  0.00000000
H        H    0.56780000  0.21260000  0.53960000  0.00000000
H        H    0.06780000  0.71260000  0.03960000  0.00000000
H        H    0.46260000  0.68220000  0.78960000  0.00000000
H        H    0.96260000  0.18220000  0.28960000  0.00000000
H        H    0.43740000  0.85270000  0.30430000  0.00000000
H        H    0.10270000  0.81260000  0.55430000  0.00000000
H        H    0.89730000  0.68740000  0.55430000  0.00000000
H        H    0.56260000  0.64730000  0.30430000  0.00000000
H        H    0.39730000  0.18740000  0.05430000  0.00000000
H        H    0.60270000  0.31260000  0.05430000  0.00000000
H        H    0.93740000  0.85270000  0.19570000  0.00000000
H        H    0.43740000  0.35270000  0.69570000  0.00000000
H        H    0.10270000  0.31260000  0.44570000  0.00000000
H        H    0.93740000  0.35270000  0.80430000  0.00000000
H        H    0.06260000  0.14730000  0.80430000  0.00000000
H        H    0.60270000  0.81260000  0.94570000  0.00000000
H        H    0.56260000  0.14730000  0.69570000  0.00000000
H        H    0.06260000  0.64730000  0.19570000  0.00000000
H        H    0.39730000  0.68740000  0.94570000  0.00000000
H        H    0.89730000  0.18740000  0.44570000  0.00000000
