data_COF-202

_cell_length_a  26.07178138
_cell_length_b  26.07178138
_cell_length_c  26.07178138
_cell_angle_alpha  109.47122063
_cell_angle_beta  109.47122063
_cell_angle_gamma  109.47122063


_symmetry_space_group_name_Hall ' P 1'
_symmetry_space_group_name_H-M  'P 1'
_symmetry_Int_Tables_number     1

loop_
_atom_site_label
_atom_site_type_symbol
_atom_site_fract_x
_atom_site_fract_y
_atom_site_fract_z
_atom_site_charge
C        C    0.57029000  0.40928000  0.37259000  0.00000000
C        C    0.87259000  0.90928000  0.07029000  0.00000000
C        C    0.96331000  0.09072000  0.66101000  0.00000000
C        C    0.46331000  0.16101000  0.59072000  0.00000000
C        C    0.62741000  0.69770000  0.03669000  0.00000000
C        C    0.40928000  0.37259000  0.57029000  0.00000000
C        C    0.03669000  0.62741000  0.69770000  0.00000000
C        C    0.16101000  0.59072000  0.46331000  0.00000000
C        C    0.12741000  0.53669000  0.19770000  0.00000000
C        C    0.83899000  0.92971000  0.30230000  0.00000000
C        C    0.30230000  0.83899000  0.92971000  0.00000000
C        C    0.09072000  0.66101000  0.96331000  0.00000000
C        C    0.59072000  0.46331000  0.16101000  0.00000000
C        C    0.42971000  0.33899000  0.80230000  0.00000000
C        C    0.19770000  0.12741000  0.53669000  0.00000000
C        C    0.33899000  0.80230000  0.42971000  0.00000000
C        C    0.90928000  0.07029000  0.87259000  0.00000000
C        C    0.37259000  0.57029000  0.40928000  0.00000000
C        C    0.07029000  0.87259000  0.90928000  0.00000000
C        C    0.69770000  0.03669000  0.62741000  0.00000000
C        C    0.80230000  0.42971000  0.33899000  0.00000000
C        C    0.53669000  0.19770000  0.12741000  0.00000000
C        C    0.92971000  0.30230000  0.83899000  0.00000000
C        C    0.66101000  0.96331000  0.09072000  0.00000000
Si       Si   0.52984000  0.50000000  1.00000000  0.00000000
Si       Si   0.00000000  0.02984000  0.50000000  0.00000000
Si       Si   0.47016000  0.47016000  0.47016000  0.00000000
Si       Si   0.50000000  0.00000000  0.52984000  0.00000000
Si       Si   0.00000000  0.52984000  0.50000000  0.00000000
Si       Si   0.97016000  0.97016000  0.97016000  0.00000000
Si       Si   0.50000000  1.00000000  0.02984000  0.00000000
Si       Si   0.02984000  0.50000000  0.00000000  0.00000000
C        C    0.45736000  0.50000000  0.00000000  0.00000000
C        C    1.00000000  0.95736000  0.50000000  0.00000000
C        C    0.54264000  0.54264000  0.54264000  0.00000000
C        C    0.50000000  1.00000000  0.45736000  0.00000000
C        C    1.00000000  0.45736000  0.50000000  0.00000000
C        C    0.04264000  0.04264000  0.04264000  0.00000000
C        C    0.50000000  1.00000000  0.95736000  0.00000000
C        C    0.95736000  0.50000000  0.00000000  0.00000000
C        C    0.58491000  0.38251000  0.28126000  0.00000000
C        C    0.78126000  0.88251000  0.08491000  0.00000000
C        C    0.89875000  0.11749000  0.70240000  0.00000000
C        C    0.39875000  0.20240000  0.61749000  0.00000000
C        C    0.71874000  0.80365000  0.10125000  0.00000000
C        C    0.38251000  0.28126000  0.58491000  0.00000000
C        C    0.10125000  0.71874000  0.80365000  0.00000000
C        C    0.20240000  0.61749000  0.39875000  0.00000000
C        C    0.21874000  0.60125000  0.30365000  0.00000000
C        C    0.79760000  0.91509000  0.19635000  0.00000000
C        C    0.19635000  0.79760000  0.91509000  0.00000000
C        C    0.11749000  0.70240000  0.89875000  0.00000000
C        C    0.61749000  0.39875000  0.20240000  0.00000000
C        C    0.41509000  0.29760000  0.69635000  0.00000000
C        C    0.30365000  0.21874000  0.60125000  0.00000000
C        C    0.29760000  0.69635000  0.41509000  0.00000000
C        C    0.88251000  0.08491000  0.78126000  0.00000000
C        C    0.28126000  0.58491000  0.38251000  0.00000000
C        C    0.08491000  0.78126000  0.88251000  0.00000000
C        C    0.80365000  0.10125000  0.71874000  0.00000000
C        C    0.69635000  0.41509000  0.29760000  0.00000000
C        C    0.60125000  0.30365000  0.21874000  0.00000000
C        C    0.91509000  0.19635000  0.79760000  0.00000000
C        C    0.70240000  0.89875000  0.11749000  0.00000000
B        B    0.46435000  0.39362000  0.36403000  0.00000000
B        B    0.86403000  0.89362000  0.96435000  0.00000000
B        B    0.97041000  0.10638000  0.57073000  0.00000000
B        B    0.47041000  0.07073000  0.60638000  0.00000000
B        B    0.63597000  0.60032000  0.02959000  0.00000000
B        B    0.39362000  0.36403000  0.46435000  0.00000000
B        B    0.02959000  0.63597000  0.60032000  0.00000000
B        B    0.07073000  0.60638000  0.47041000  0.00000000
B        B    0.13597000  0.52959000  0.10032000  0.00000000
B        B    0.92927000  0.03565000  0.39968000  0.00000000
B        B    0.39968000  0.92927000  0.03565000  0.00000000
B        B    0.10638000  0.57073000  0.97041000  0.00000000
B        B    0.60638000  0.47041000  0.07073000  0.00000000
B        B    0.53565000  0.42927000  0.89968000  0.00000000
B        B    0.10032000  0.13597000  0.52959000  0.00000000
B        B    0.42927000  0.89968000  0.53565000  0.00000000
B        B    0.89362000  0.96435000  0.86403000  0.00000000
B        B    0.36403000  0.46435000  0.39362000  0.00000000
B        B    0.96435000  0.86403000  0.89362000  0.00000000
B        B    0.60032000  0.02959000  0.63597000  0.00000000
B        B    0.89968000  0.53565000  0.42927000  0.00000000
B        B    0.52959000  0.10032000  0.13597000  0.00000000
B        B    0.03565000  0.39968000  0.92927000  0.00000000
B        B    0.57073000  0.97041000  0.10638000  0.00000000
O        O    0.49233000  0.41957000  0.43236000  0.00000000
O        O    0.93236000  0.91957000  0.99233000  0.00000000
O        O    0.01279000  0.08043000  0.57276000  0.00000000
O        O    0.51279000  0.07276000  0.58043000  0.00000000
O        O    0.56764000  0.55997000  0.98721000  0.00000000
O        O    0.41957000  0.43236000  0.49233000  0.00000000
O        O    0.98721000  0.56764000  0.55997000  0.00000000
O        O    0.07276000  0.58043000  0.51279000  0.00000000
O        O    0.06764000  0.48721000  0.05997000  0.00000000
O        O    0.92724000  0.00767000  0.44003000  0.00000000
O        O    0.44003000  0.92724000  0.00767000  0.00000000
O        O    0.08043000  0.57276000  0.01279000  0.00000000
O        O    0.58043000  0.51279000  0.07276000  0.00000000
O        O    0.50767000  0.42724000  0.94003000  0.00000000
O        O    0.05997000  0.06764000  0.48721000  0.00000000
O        O    0.42724000  0.94003000  0.50767000  0.00000000
O        O    0.91957000  0.99233000  0.93236000  0.00000000
O        O    0.43236000  0.49233000  0.41957000  0.00000000
O        O    0.99233000  0.93236000  0.91957000  0.00000000
O        O    0.55997000  0.98721000  0.56764000  0.00000000
O        O    0.94003000  0.50767000  0.42724000  0.00000000
O        O    0.48721000  0.05997000  0.06764000  0.00000000
O        O    0.00767000  0.44003000  0.92724000  0.00000000
O        O    0.57276000  0.01279000  0.08043000  0.00000000
C        C    0.52006000  0.35836000  0.24308000  0.00000000
C        C    0.74308000  0.85836000  0.02006000  0.00000000
C        C    0.88472000  0.14164000  0.66170000  0.00000000
C        C    0.38472000  0.16170000  0.64164000  0.00000000
C        C    0.75692000  0.77698000  0.11528000  0.00000000
C        C    0.35836000  0.24308000  0.52006000  0.00000000
C        C    0.11528000  0.75692000  0.77698000  0.00000000
C        C    0.16170000  0.64164000  0.38472000  0.00000000
C        C    0.25692000  0.61528000  0.27698000  0.00000000
C        C    0.83830000  0.97994000  0.22302000  0.00000000
C        C    0.22302000  0.83830000  0.97994000  0.00000000
C        C    0.14164000  0.66170000  0.88472000  0.00000000
C        C    0.64164000  0.38472000  0.16170000  0.00000000
C        C    0.47994000  0.33830000  0.72302000  0.00000000
C        C    0.27698000  0.25692000  0.61528000  0.00000000
C        C    0.33830000  0.72302000  0.47994000  0.00000000
C        C    0.85836000  0.02006000  0.74308000  0.00000000
C        C    0.24308000  0.52006000  0.35836000  0.00000000
C        C    0.02006000  0.74308000  0.85836000  0.00000000
C        C    0.77698000  0.11528000  0.75692000  0.00000000
C        C    0.72302000  0.47994000  0.33830000  0.00000000
C        C    0.61528000  0.27698000  0.25692000  0.00000000
C        C    0.97994000  0.22302000  0.83830000  0.00000000
C        C    0.66170000  0.88472000  0.14164000  0.00000000
C        C    0.50684000  0.38827000  0.33435000  0.00000000
C        C    0.83435000  0.88827000  0.00684000  0.00000000
C        C    0.94608000  0.11173000  0.61857000  0.00000000
C        C    0.44608000  0.11857000  0.61173000  0.00000000
C        C    0.66565000  0.67249000  0.05392000  0.00000000
C        C    0.38827000  0.33435000  0.50684000  0.00000000
C        C    0.05392000  0.66565000  0.67249000  0.00000000
C        C    0.11857000  0.61173000  0.44608000  0.00000000
C        C    0.16565000  0.55392000  0.17249000  0.00000000
C        C    0.88143000  0.99316000  0.32751000  0.00000000
C        C    0.32751000  0.88143000  0.99316000  0.00000000
C        C    0.11173000  0.61857000  0.94608000  0.00000000
C        C    0.61173000  0.44608000  0.11857000  0.00000000
C        C    0.49316000  0.38143000  0.82751000  0.00000000
C        C    0.17249000  0.16565000  0.55392000  0.00000000
C        C    0.38143000  0.82751000  0.49316000  0.00000000
C        C    0.88827000  0.00684000  0.83435000  0.00000000
C        C    0.33435000  0.50684000  0.38827000  0.00000000
C        C    0.00684000  0.83435000  0.88827000  0.00000000
C        C    0.67249000  0.05392000  0.66565000  0.00000000
C        C    0.82751000  0.49316000  0.38143000  0.00000000
C        C    0.55392000  0.17249000  0.16565000  0.00000000
C        C    0.99316000  0.32751000  0.88143000  0.00000000
C        C    0.61857000  0.94608000  0.11173000  0.00000000
C        C    0.48181000  0.36213000  0.26932000  0.00000000
C        C    0.76932000  0.86213000  0.98181000  0.00000000
C        C    0.90719000  0.13787000  0.61968000  0.00000000
C        C    0.40719000  0.11968000  0.63787000  0.00000000
C        C    0.73068000  0.71249000  0.09281000  0.00000000
C        C    0.36213000  0.26932000  0.48181000  0.00000000
C        C    0.09281000  0.73068000  0.71249000  0.00000000
C        C    0.11968000  0.63787000  0.40719000  0.00000000
C        C    0.23068000  0.59281000  0.21249000  0.00000000
C        C    0.88032000  0.01819000  0.28751000  0.00000000
C        C    0.28751000  0.88032000  0.01819000  0.00000000
C        C    0.13787000  0.61968000  0.90719000  0.00000000
C        C    0.63787000  0.40719000  0.11968000  0.00000000
C        C    0.51819000  0.38032000  0.78751000  0.00000000
C        C    0.21249000  0.23068000  0.59281000  0.00000000
C        C    0.38032000  0.78751000  0.51819000  0.00000000
C        C    0.86213000  0.98181000  0.76932000  0.00000000
C        C    0.26932000  0.48181000  0.36213000  0.00000000
C        C    0.98181000  0.76932000  0.86213000  0.00000000
C        C    0.71249000  0.09281000  0.73068000  0.00000000
C        C    0.78751000  0.51819000  0.38032000  0.00000000
C        C    0.59281000  0.21249000  0.23068000  0.00000000
C        C    0.01819000  0.28751000  0.88032000  0.00000000
C        C    0.61968000  0.90719000  0.13787000  0.00000000
Si       Si   0.65642000  0.50000000  1.00000000  0.00000000
Si       Si   1.00000000  0.15642000  0.50000000  0.00000000
Si       Si   0.34358000  0.34358000  0.34358000  0.00000000
Si       Si   0.50000000  1.00000000  0.65642000  0.00000000
Si       Si   0.00000000  0.65642000  0.50000000  0.00000000
Si       Si   0.84358000  0.84358000  0.84358000  0.00000000
Si       Si   0.50000000  1.00000000  0.15642000  0.00000000
Si       Si   0.15642000  0.50000000  0.00000000  0.00000000
C        C    0.72892000  0.50000000  1.00000000  0.00000000
C        C    1.00000000  0.22892000  0.50000000  0.00000000
C        C    0.27108000  0.27108000  0.27108000  0.00000000
C        C    0.50000000  0.00000000  0.72892000  0.00000000
C        C    0.00000000  0.72892000  0.50000000  0.00000000
C        C    0.77108000  0.77108000  0.77108000  0.00000000
C        C    0.50000000  1.00000000  0.22892000  0.00000000
C        C    0.22892000  0.50000000  0.00000000  0.00000000
O        O    0.39894000  0.37456000  0.32268000  0.00000000
O        O    0.82268000  0.87456000  0.89894000  0.00000000
O        O    0.94812000  0.12544000  0.52438000  0.00000000
O        O    0.44812000  0.02438000  0.62544000  0.00000000
O        O    0.67732000  0.57626000  0.05188000  0.00000000
O        O    0.37456000  0.32268000  0.39894000  0.00000000
O        O    0.05188000  0.67732000  0.57626000  0.00000000
O        O    0.02438000  0.62544000  0.44812000  0.00000000
O        O    0.17732000  0.55188000  0.07626000  0.00000000
O        O    0.97562000  0.10106000  0.42374000  0.00000000
O        O    0.42374000  0.97562000  0.10106000  0.00000000
O        O    0.12544000  0.52438000  0.94812000  0.00000000
O        O    0.62544000  0.44812000  0.02438000  0.00000000
O        O    0.60106000  0.47562000  0.92374000  0.00000000
O        O    0.07626000  0.17732000  0.55188000  0.00000000
O        O    0.47562000  0.92374000  0.60106000  0.00000000
O        O    0.87456000  0.89894000  0.82268000  0.00000000
O        O    0.32268000  0.39894000  0.37456000  0.00000000
O        O    0.89894000  0.82268000  0.87456000  0.00000000
O        O    0.57626000  0.05188000  0.67732000  0.00000000
O        O    0.92374000  0.60106000  0.47562000  0.00000000
O        O    0.55188000  0.07626000  0.17732000  0.00000000
O        O    0.10106000  0.42374000  0.97562000  0.00000000
O        O    0.52438000  0.94812000  0.12544000  0.00000000
C        C    0.57516000  0.52324000  0.58754000  0.00000000
C        C    0.08754000  0.02324000  0.07516000  0.00000000
C        C    0.06430000  0.97676000  0.55192000  0.00000000
C        C    0.56430000  0.05192000  0.47676000  0.00000000
C        C    0.41246000  0.48762000  0.93570000  0.00000000
C        C    0.52324000  0.58754000  0.57516000  0.00000000
C        C    0.93570000  0.41246000  0.48762000  0.00000000
C        C    0.05192000  0.47676000  0.56430000  0.00000000
C        C    0.91246000  0.43570000  0.98762000  0.00000000
C        C    0.94808000  0.92484000  0.51238000  0.00000000
C        C    0.51238000  0.94808000  0.92484000  0.00000000
C        C    0.97676000  0.55192000  0.06430000  0.00000000
C        C    0.47676000  0.56430000  0.05192000  0.00000000
C        C    0.42484000  0.44808000  0.01238000  0.00000000
C        C    0.98762000  0.91246000  0.43570000  0.00000000
C        C    0.44808000  0.01238000  0.42484000  0.00000000
C        C    0.02324000  0.07516000  0.08754000  0.00000000
C        C    0.58754000  0.57516000  0.52324000  0.00000000
C        C    0.07516000  0.08754000  0.02324000  0.00000000
C        C    0.48762000  0.93570000  0.41246000  0.00000000
C        C    0.01238000  0.42484000  0.44808000  0.00000000
C        C    0.43570000  0.98762000  0.91246000  0.00000000
C        C    0.92484000  0.51238000  0.94808000  0.00000000
C        C    0.55192000  0.06430000  0.97676000  0.00000000
C        C    0.28950000  0.22313000  0.24261000  0.00000000
C        C    0.74261000  0.72313000  0.78950000  0.00000000
C        C    0.01948000  0.27687000  0.56637000  0.00000000
C        C    0.51948000  0.06637000  0.77687000  0.00000000
C        C    0.75739000  0.54689000  0.98052000  0.00000000
C        C    0.22313000  0.24261000  0.28950000  0.00000000
C        C    0.98052000  0.75739000  0.54689000  0.00000000
C        C    0.06637000  0.77687000  0.51948000  0.00000000
C        C    0.25739000  0.48052000  0.04689000  0.00000000
C        C    0.93363000  0.21050000  0.45311000  0.00000000
C        C    0.45311000  0.93363000  0.21050000  0.00000000
C        C    0.27687000  0.56637000  0.01948000  0.00000000
C        C    0.77687000  0.51948000  0.06637000  0.00000000
C        C    0.71050000  0.43363000  0.95311000  0.00000000
C        C    0.04689000  0.25739000  0.48052000  0.00000000
C        C    0.43363000  0.95311000  0.71050000  0.00000000
C        C    0.72313000  0.78950000  0.74261000  0.00000000
C        C    0.24261000  0.28950000  0.22313000  0.00000000
C        C    0.78950000  0.74261000  0.72313000  0.00000000
C        C    0.54689000  0.98052000  0.75739000  0.00000000
C        C    0.95311000  0.71050000  0.43363000  0.00000000
C        C    0.48052000  0.04689000  0.25739000  0.00000000
C        C    0.21050000  0.45311000  0.93363000  0.00000000
C        C    0.56637000  0.01948000  0.27687000  0.00000000
H        H    0.61805000  0.56515000  0.63060000  0.00000000
H        H    0.13060000  0.06515000  0.11805000  0.00000000
H        H    0.06545000  0.93485000  0.55290000  0.00000000
H        H    0.56545000  0.05290000  0.43485000  0.00000000
H        H    0.36940000  0.48745000  0.93455000  0.00000000
H        H    0.56515000  0.63060000  0.61805000  0.00000000
H        H    0.93455000  0.36940000  0.48745000  0.00000000
H        H    0.05290000  0.43485000  0.56545000  0.00000000
H        H    0.86940000  0.43455000  0.98745000  0.00000000
H        H    0.94710000  0.88195000  0.51255000  0.00000000
H        H    0.51255000  0.94710000  0.88195000  0.00000000
H        H    0.93485000  0.55290000  0.06545000  0.00000000
H        H    0.43485000  0.56545000  0.05290000  0.00000000
H        H    0.38195000  0.44710000  0.01255000  0.00000000
H        H    0.98745000  0.86940000  0.43455000  0.00000000
H        H    0.44710000  0.01255000  0.38195000  0.00000000
H        H    0.06515000  0.11805000  0.13060000  0.00000000
H        H    0.63060000  0.61805000  0.56515000  0.00000000
H        H    0.11805000  0.13060000  0.06515000  0.00000000
H        H    0.48745000  0.93455000  0.36940000  0.00000000
H        H    0.01255000  0.38195000  0.44710000  0.00000000
H        H    0.43455000  0.98745000  0.86940000  0.00000000
H        H    0.88195000  0.51255000  0.94710000  0.00000000
H        H    0.55290000  0.06545000  0.93485000  0.00000000
H        H    0.54323000  0.49944000  0.60189000  0.00000000
H        H    0.10189000  0.99944000  0.04323000  0.00000000
H        H    0.10245000  0.00056000  0.54379000  0.00000000
H        H    0.60245000  0.04379000  0.50056000  0.00000000
H        H    0.39811000  0.44134000  0.89755000  0.00000000
H        H    0.49944000  0.60189000  0.54323000  0.00000000
H        H    0.89755000  0.39811000  0.44134000  0.00000000
H        H    0.04379000  0.50056000  0.60245000  0.00000000
H        H    0.89811000  0.39755000  0.94134000  0.00000000
H        H    0.95621000  0.95677000  0.55866000  0.00000000
H        H    0.55866000  0.95621000  0.95677000  0.00000000
H        H    0.00056000  0.54379000  0.10245000  0.00000000
H        H    0.50056000  0.60245000  0.04379000  0.00000000
H        H    0.45677000  0.45621000  0.05866000  0.00000000
H        H    0.94134000  0.89811000  0.39755000  0.00000000
H        H    0.45621000  0.05866000  0.45677000  0.00000000
H        H    0.99944000  0.04323000  0.10189000  0.00000000
H        H    0.60189000  0.54323000  0.49944000  0.00000000
H        H    0.04323000  0.10189000  0.99944000  0.00000000
H        H    0.44134000  0.89755000  0.39811000  0.00000000
H        H    0.05866000  0.45677000  0.45621000  0.00000000
H        H    0.39755000  0.94134000  0.89811000  0.00000000
H        H    0.95677000  0.55866000  0.95621000  0.00000000
H        H    0.54379000  0.10245000  0.00056000  0.00000000
H        H    0.58924000  0.49050000  0.56460000  0.00000000
H        H    0.06460000  0.99050000  0.08924000  0.00000000
H        H    0.07410000  0.00950000  0.59874000  0.00000000
H        H    0.57410000  0.09874000  0.50950000  0.00000000
H        H    0.43540000  0.52464000  0.92590000  0.00000000
H        H    0.49050000  0.56460000  0.58924000  0.00000000
H        H    0.92590000  0.43540000  0.52464000  0.00000000
H        H    0.09874000  0.50950000  0.57410000  0.00000000
H        H    0.93540000  0.42590000  0.02464000  0.00000000
H        H    0.90126000  0.91076000  0.47536000  0.00000000
H        H    0.47536000  0.90126000  0.91076000  0.00000000
H        H    0.00950000  0.59874000  0.07410000  0.00000000
H        H    0.50950000  0.57410000  0.09874000  0.00000000
H        H    0.41076000  0.40126000  0.97536000  0.00000000
H        H    0.02464000  0.93540000  0.42590000  0.00000000
H        H    0.40126000  0.97536000  0.41076000  0.00000000
H        H    0.99050000  0.08924000  0.06460000  0.00000000
H        H    0.56460000  0.58924000  0.49050000  0.00000000
H        H    0.08924000  0.06460000  0.99050000  0.00000000
H        H    0.52464000  0.92590000  0.43540000  0.00000000
H        H    0.97536000  0.41076000  0.40126000  0.00000000
H        H    0.42590000  0.02464000  0.93540000  0.00000000
H        H    0.91076000  0.47536000  0.90126000  0.00000000
H        H    0.59874000  0.07410000  0.00950000  0.00000000
H        H    0.24755000  0.17999000  0.19980000  0.00000000
H        H    0.69980000  0.67999000  0.74755000  0.00000000
H        H    0.01981000  0.32001000  0.56756000  0.00000000
H        H    0.51981000  0.06756000  0.82001000  0.00000000
H        H    0.80020000  0.54775000  0.98019000  0.00000000
H        H    0.17999000  0.19980000  0.24755000  0.00000000
H        H    0.98019000  0.80020000  0.54775000  0.00000000
H        H    0.06756000  0.82001000  0.51981000  0.00000000
H        H    0.30020000  0.48019000  0.04775000  0.00000000
H        H    0.93244000  0.25245000  0.45225000  0.00000000
H        H    0.45225000  0.93244000  0.25245000  0.00000000
H        H    0.32001000  0.56756000  0.01981000  0.00000000
H        H    0.82001000  0.51981000  0.06756000  0.00000000
H        H    0.75245000  0.43244000  0.95225000  0.00000000
H        H    0.04775000  0.30020000  0.48019000  0.00000000
H        H    0.43244000  0.95225000  0.75245000  0.00000000
H        H    0.67999000  0.74755000  0.69980000  0.00000000
H        H    0.19980000  0.24755000  0.17999000  0.00000000
H        H    0.74755000  0.69980000  0.67999000  0.00000000
H        H    0.54775000  0.98019000  0.80020000  0.00000000
H        H    0.95225000  0.75245000  0.43244000  0.00000000
H        H    0.48019000  0.04775000  0.30020000  0.00000000
H        H    0.25245000  0.45225000  0.93244000  0.00000000
H        H    0.56756000  0.01981000  0.32001000  0.00000000
H        H    0.32439000  0.24308000  0.22925000  0.00000000
H        H    0.72925000  0.74308000  0.82439000  0.00000000
H        H    0.98617000  0.25692000  0.58131000  0.00000000
H        H    0.48617000  0.08131000  0.75692000  0.00000000
H        H    0.77075000  0.59514000  0.01383000  0.00000000
H        H    0.24308000  0.22925000  0.32439000  0.00000000
H        H    0.01383000  0.77075000  0.59514000  0.00000000
H        H    0.08131000  0.75692000  0.48617000  0.00000000
H        H    0.27075000  0.51383000  0.09514000  0.00000000
H        H    0.91869000  0.17561000  0.40486000  0.00000000
H        H    0.40486000  0.91869000  0.17561000  0.00000000
H        H    0.25692000  0.58131000  0.98617000  0.00000000
H        H    0.75692000  0.48617000  0.08131000  0.00000000
H        H    0.67561000  0.41869000  0.90486000  0.00000000
H        H    0.09514000  0.27075000  0.51383000  0.00000000
H        H    0.41869000  0.90486000  0.67561000  0.00000000
H        H    0.74308000  0.82439000  0.72925000  0.00000000
H        H    0.22925000  0.32439000  0.24308000  0.00000000
H        H    0.82439000  0.72925000  0.74308000  0.00000000
H        H    0.59514000  0.01383000  0.77075000  0.00000000
H        H    0.90486000  0.67561000  0.41869000  0.00000000
H        H    0.51383000  0.09514000  0.27075000  0.00000000
H        H    0.17561000  0.40486000  0.91869000  0.00000000
H        H    0.58131000  0.98617000  0.25692000  0.00000000
H        H    0.31039000  0.20947000  0.27680000  0.00000000
H        H    0.77680000  0.70947000  0.81039000  0.00000000
H        H    0.06733000  0.29053000  0.60092000  0.00000000
H        H    0.56733000  0.10092000  0.79053000  0.00000000
H        H    0.72320000  0.53359000  0.93267000  0.00000000
H        H    0.20947000  0.27680000  0.31039000  0.00000000
H        H    0.93267000  0.72320000  0.53359000  0.00000000
H        H    0.10092000  0.79053000  0.56733000  0.00000000
H        H    0.22320000  0.43267000  0.03359000  0.00000000
H        H    0.89908000  0.18961000  0.46641000  0.00000000
H        H    0.46641000  0.89908000  0.18961000  0.00000000
H        H    0.29053000  0.60092000  0.06733000  0.00000000
H        H    0.79053000  0.56733000  0.10092000  0.00000000
H        H    0.68961000  0.39908000  0.96641000  0.00000000
H        H    0.03359000  0.22320000  0.43267000  0.00000000
H        H    0.39908000  0.96641000  0.68961000  0.00000000
H        H    0.70947000  0.81039000  0.77680000  0.00000000
H        H    0.27680000  0.31039000  0.20947000  0.00000000
H        H    0.81039000  0.77680000  0.70947000  0.00000000
H        H    0.53359000  0.93267000  0.72320000  0.00000000
H        H    0.96641000  0.68961000  0.39908000  0.00000000
H        H    0.43267000  0.03359000  0.22320000  0.00000000
H        H    0.18961000  0.46641000  0.89908000  0.00000000
H        H    0.60092000  0.06733000  0.29053000  0.00000000
H        H    0.49907000  0.33692000  0.19253000  0.00000000
H        H    0.69253000  0.83692000  0.99907000  0.00000000
H        H    0.85561000  0.16308000  0.66215000  0.00000000
H        H    0.35561000  0.16215000  0.66308000  0.00000000
H        H    0.80747000  0.80654000  0.14439000  0.00000000
H        H    0.33692000  0.19253000  0.49907000  0.00000000
H        H    0.14439000  0.80747000  0.80654000  0.00000000
H        H    0.16215000  0.66308000  0.35561000  0.00000000
H        H    0.30747000  0.64439000  0.30654000  0.00000000
H        H    0.83785000  0.00093000  0.19346000  0.00000000
H        H    0.19346000  0.83785000  0.00093000  0.00000000
H        H    0.16308000  0.66215000  0.85561000  0.00000000
H        H    0.66308000  0.35561000  0.16215000  0.00000000
H        H    0.50093000  0.33785000  0.69346000  0.00000000
H        H    0.30654000  0.30747000  0.64439000  0.00000000
H        H    0.33785000  0.69346000  0.50093000  0.00000000
H        H    0.83692000  0.99907000  0.69253000  0.00000000
H        H    0.19253000  0.49907000  0.33692000  0.00000000
H        H    0.99907000  0.69253000  0.83692000  0.00000000
H        H    0.80654000  0.14439000  0.80747000  0.00000000
H        H    0.69346000  0.50093000  0.33785000  0.00000000
H        H    0.64439000  0.30654000  0.30747000  0.00000000
H        H    0.00093000  0.19346000  0.83785000  0.00000000
H        H    0.66215000  0.85561000  0.16308000  0.00000000
H        H    0.65645000  0.41986000  0.37749000  0.00000000
H        H    0.87749000  0.91986000  0.15645000  0.00000000
H        H    0.95763000  0.08014000  0.73659000  0.00000000
H        H    0.45763000  0.23659000  0.58014000  0.00000000
H        H    0.62251000  0.77896000  0.04237000  0.00000000
H        H    0.41986000  0.37749000  0.65645000  0.00000000
H        H    0.04237000  0.62251000  0.77896000  0.00000000
H        H    0.23659000  0.58014000  0.45763000  0.00000000
H        H    0.12251000  0.54237000  0.27896000  0.00000000
H        H    0.76341000  0.84355000  0.22104000  0.00000000
H        H    0.22104000  0.76341000  0.84355000  0.00000000
H        H    0.08014000  0.73659000  0.95763000  0.00000000
H        H    0.58014000  0.45763000  0.23659000  0.00000000
H        H    0.34355000  0.26341000  0.72104000  0.00000000
H        H    0.27896000  0.12251000  0.54237000  0.00000000
H        H    0.26341000  0.72104000  0.34355000  0.00000000
H        H    0.91986000  0.15645000  0.87749000  0.00000000
H        H    0.37749000  0.65645000  0.41986000  0.00000000
H        H    0.15645000  0.87749000  0.91986000  0.00000000
H        H    0.77896000  0.04237000  0.62251000  0.00000000
H        H    0.72104000  0.34355000  0.26341000  0.00000000
H        H    0.54237000  0.27896000  0.12251000  0.00000000
H        H    0.84355000  0.22104000  0.76341000  0.00000000
H        H    0.73659000  0.95763000  0.08014000  0.00000000
H        H    0.43259000  0.34426000  0.23849000  0.00000000
H        H    0.73849000  0.84426000  0.93259000  0.00000000
H        H    0.89423000  0.15574000  0.58833000  0.00000000
H        H    0.39423000  0.08833000  0.65574000  0.00000000
H        H    0.76151000  0.69410000  0.10577000  0.00000000
H        H    0.34426000  0.23849000  0.43259000  0.00000000
H        H    0.10577000  0.76151000  0.69410000  0.00000000
H        H    0.08833000  0.65574000  0.39423000  0.00000000
H        H    0.26151000  0.60577000  0.19410000  0.00000000
H        H    0.91167000  0.06741000  0.30590000  0.00000000
H        H    0.30590000  0.91167000  0.06741000  0.00000000
H        H    0.15574000  0.58833000  0.89423000  0.00000000
H        H    0.65574000  0.39423000  0.08833000  0.00000000
H        H    0.56741000  0.41167000  0.80590000  0.00000000
H        H    0.19410000  0.26151000  0.60577000  0.00000000
H        H    0.41167000  0.80590000  0.56741000  0.00000000
H        H    0.84426000  0.93259000  0.73849000  0.00000000
H        H    0.23849000  0.43259000  0.34426000  0.00000000
H        H    0.93259000  0.73849000  0.84426000  0.00000000
H        H    0.69410000  0.10577000  0.76151000  0.00000000
H        H    0.80590000  0.56741000  0.41167000  0.00000000
H        H    0.60577000  0.19410000  0.26151000  0.00000000
H        H    0.06741000  0.30590000  0.91167000  0.00000000
H        H    0.58833000  0.89423000  0.15574000  0.00000000
H        H    0.59047000  0.42823000  0.42286000  0.00000000
H        H    0.92286000  0.92823000  0.09047000  0.00000000
H        H    0.99463000  0.07177000  0.66224000  0.00000000
H        H    0.49463000  0.16224000  0.57177000  0.00000000
H        H    0.57714000  0.66761000  0.00537000  0.00000000
H        H    0.42823000  0.42286000  0.59047000  0.00000000
H        H    0.00537000  0.57714000  0.66761000  0.00000000
H        H    0.16224000  0.57177000  0.49463000  0.00000000
H        H    0.07714000  0.50537000  0.16761000  0.00000000
H        H    0.83776000  0.90953000  0.33239000  0.00000000
H        H    0.33239000  0.83776000  0.90953000  0.00000000
H        H    0.07177000  0.66224000  0.99463000  0.00000000
H        H    0.57177000  0.49463000  0.16224000  0.00000000
H        H    0.40953000  0.33776000  0.83239000  0.00000000
H        H    0.16761000  0.07714000  0.50537000  0.00000000
H        H    0.33776000  0.83239000  0.40953000  0.00000000
H        H    0.92823000  0.09047000  0.92286000  0.00000000
H        H    0.42286000  0.59047000  0.42823000  0.00000000
H        H    0.09047000  0.92286000  0.92823000  0.00000000
H        H    0.66761000  0.00537000  0.57714000  0.00000000
H        H    0.83239000  0.40953000  0.33776000  0.00000000
H        H    0.50537000  0.16761000  0.07714000  0.00000000
H        H    0.90953000  0.33239000  0.83776000  0.00000000
H        H    0.66224000  0.99463000  0.07177000  0.00000000
C        C    0.12500000  0.75000000  0.87500000  0.00000000
C        C    0.75000000  0.87500000  0.12500000  0.00000000
C        C    0.87500000  0.12500000  0.75000000  0.00000000
C        C    0.37500000  0.25000000  0.62500000  0.00000000
C        C    0.62500000  0.37500000  0.25000000  0.00000000
C        C    0.25000000  0.62500000  0.37500000  0.00000000
