data_COF-105

_cell_length_a  38.87241627
_cell_length_b  38.87241627
_cell_length_c  38.87241627
_cell_angle_alpha  109.47122063
_cell_angle_beta  109.47122063
_cell_angle_gamma  109.47122063


_symmetry_space_group_name_Hall ' P 1'
_symmetry_space_group_name_H-M  'P 1'
_symmetry_Int_Tables_number     1

loop_
_atom_site_label
_atom_site_type_symbol
_atom_site_fract_x
_atom_site_fract_y
_atom_site_fract_z
_atom_site_charge
O        O    0.98643000  0.35238000  0.86749000  0.00000000
O        O    0.01357000  0.86595000  0.88106000  0.00000000
O        O    0.51357000  0.38106000  0.36595000  0.00000000
O        O    0.64762000  0.01511000  0.63405000  0.00000000
O        O    0.48489000  0.13251000  0.61894000  0.00000000
O        O    0.38106000  0.36595000  0.51357000  0.00000000
O        O    0.88106000  0.01357000  0.86595000  0.00000000
O        O    0.48643000  0.36749000  0.85238000  0.00000000
O        O    0.36595000  0.51357000  0.38106000  0.00000000
O        O    0.86749000  0.98643000  0.35238000  0.00000000
O        O    0.14762000  0.13405000  0.51511000  0.00000000
O        O    0.35238000  0.86749000  0.98643000  0.00000000
O        O    0.86595000  0.88106000  0.01357000  0.00000000
O        O    0.85238000  0.48643000  0.36749000  0.00000000
O        O    0.11894000  0.63251000  0.98489000  0.00000000
O        O    0.01511000  0.63405000  0.64762000  0.00000000
O        O    0.36749000  0.85238000  0.48643000  0.00000000
O        O    0.63251000  0.98489000  0.11894000  0.00000000
O        O    0.61894000  0.48489000  0.13251000  0.00000000
O        O    0.63405000  0.64762000  0.01511000  0.00000000
O        O    0.13251000  0.61894000  0.48489000  0.00000000
O        O    0.51511000  0.14762000  0.13405000  0.00000000
O        O    0.98489000  0.11894000  0.63251000  0.00000000
O        O    0.13405000  0.51511000  0.14762000  0.00000000
O        O    0.16785000  0.58865000  0.16218000  0.00000000
O        O    0.83215000  0.92080000  0.99433000  0.00000000
O        O    0.33215000  0.49433000  0.42080000  0.00000000
O        O    0.41135000  0.07353000  0.57920000  0.00000000
O        O    0.42647000  0.83782000  0.50567000  0.00000000
O        O    0.49433000  0.42080000  0.33215000  0.00000000
O        O    0.99433000  0.83215000  0.92080000  0.00000000
O        O    0.66785000  0.66218000  0.08865000  0.00000000
O        O    0.42080000  0.33215000  0.49433000  0.00000000
O        O    0.16218000  0.16785000  0.58865000  0.00000000
O        O    0.91135000  0.07920000  0.57353000  0.00000000
O        O    0.58865000  0.16218000  0.16785000  0.00000000
O        O    0.92080000  0.99433000  0.83215000  0.00000000
O        O    0.08865000  0.66785000  0.66218000  0.00000000
O        O    0.00567000  0.33782000  0.92647000  0.00000000
O        O    0.07353000  0.57920000  0.41135000  0.00000000
O        O    0.66218000  0.08865000  0.66785000  0.00000000
O        O    0.33782000  0.92647000  0.00567000  0.00000000
O        O    0.50567000  0.42647000  0.83782000  0.00000000
O        O    0.57920000  0.41135000  0.07353000  0.00000000
O        O    0.83782000  0.50567000  0.42647000  0.00000000
O        O    0.57353000  0.91135000  0.07920000  0.00000000
O        O    0.92647000  0.00567000  0.33782000  0.00000000
O        O    0.07920000  0.57353000  0.91135000  0.00000000
B        B    0.10189000  0.61971000  0.93972000  0.00000000
B        B    0.89811000  0.01782000  0.83783000  0.00000000
B        B    0.39811000  0.33783000  0.51782000  0.00000000
B        B    0.38029000  0.82001000  0.48218000  0.00000000
B        B    0.67999000  0.06028000  0.66217000  0.00000000
B        B    0.33783000  0.51782000  0.39811000  0.00000000
B        B    0.83783000  0.89811000  0.01782000  0.00000000
B        B    0.60189000  0.43972000  0.11971000  0.00000000
B        B    0.51782000  0.39811000  0.33783000  0.00000000
B        B    0.93972000  0.10189000  0.61971000  0.00000000
B        B    0.88029000  0.98218000  0.32001000  0.00000000
B        B    0.61971000  0.93972000  0.10189000  0.00000000
B        B    0.01782000  0.83783000  0.89811000  0.00000000
B        B    0.11971000  0.60189000  0.43972000  0.00000000
B        B    0.16217000  0.56028000  0.17999000  0.00000000
B        B    0.82001000  0.48218000  0.38029000  0.00000000
B        B    0.43972000  0.11971000  0.60189000  0.00000000
B        B    0.56028000  0.17999000  0.16217000  0.00000000
B        B    0.66217000  0.67999000  0.06028000  0.00000000
B        B    0.48218000  0.38029000  0.82001000  0.00000000
B        B    0.06028000  0.66217000  0.67999000  0.00000000
B        B    0.32001000  0.88029000  0.98218000  0.00000000
B        B    0.17999000  0.16217000  0.56028000  0.00000000
B        B    0.98218000  0.32001000  0.88029000  0.00000000
C        C    0.05574000  0.46554000  0.95690000  0.00000000
C        C    0.94426000  0.90980000  0.90116000  0.00000000
C        C    0.44426000  0.40116000  0.40980000  0.00000000
C        C    0.53446000  0.99136000  0.59020000  0.00000000
C        C    0.50864000  0.04310000  0.59884000  0.00000000
C        C    0.40116000  0.40980000  0.44426000  0.00000000
C        C    0.90116000  0.94426000  0.90980000  0.00000000
C        C    0.55574000  0.45690000  0.96554000  0.00000000
C        C    0.40980000  0.44426000  0.40116000  0.00000000
C        C    0.95690000  0.05574000  0.46554000  0.00000000
C        C    0.03446000  0.09020000  0.49136000  0.00000000
C        C    0.46554000  0.95690000  0.05574000  0.00000000
C        C    0.90980000  0.90116000  0.94426000  0.00000000
C        C    0.96554000  0.55574000  0.45690000  0.00000000
C        C    0.09884000  0.54310000  0.00864000  0.00000000
C        C    0.99136000  0.59020000  0.53446000  0.00000000
C        C    0.45690000  0.96554000  0.55574000  0.00000000
C        C    0.54310000  0.00864000  0.09884000  0.00000000
C        C    0.59884000  0.50864000  0.04310000  0.00000000
C        C    0.59020000  0.53446000  0.99136000  0.00000000
C        C    0.04310000  0.59884000  0.50864000  0.00000000
C        C    0.49136000  0.03446000  0.09020000  0.00000000
C        C    0.00864000  0.09884000  0.54310000  0.00000000
C        C    0.09020000  0.49136000  0.03446000  0.00000000
C        C    0.06505000  0.45697000  0.99156000  0.00000000
C        C    0.93495000  0.89192000  0.92651000  0.00000000
C        C    0.43495000  0.42651000  0.39192000  0.00000000
C        C    0.54303000  0.03459000  0.60808000  0.00000000
C        C    0.46541000  0.00844000  0.57349000  0.00000000
C        C    0.42651000  0.39192000  0.43495000  0.00000000
C        C    0.92651000  0.93495000  0.89192000  0.00000000
C        C    0.56505000  0.49156000  0.95697000  0.00000000
C        C    0.39192000  0.43495000  0.42651000  0.00000000
C        C    0.99156000  0.06505000  0.45697000  0.00000000
C        C    0.04303000  0.10808000  0.53459000  0.00000000
C        C    0.45697000  0.99156000  0.06505000  0.00000000
C        C    0.89192000  0.92651000  0.93495000  0.00000000
C        C    0.95697000  0.56505000  0.49156000  0.00000000
C        C    0.07349000  0.50844000  0.96541000  0.00000000
C        C    0.03459000  0.60808000  0.54303000  0.00000000
C        C    0.49156000  0.95697000  0.56505000  0.00000000
C        C    0.50844000  0.96541000  0.07349000  0.00000000
C        C    0.57349000  0.46541000  0.00844000  0.00000000
C        C    0.60808000  0.54303000  0.03459000  0.00000000
C        C    0.00844000  0.57349000  0.46541000  0.00000000
C        C    0.53459000  0.04303000  0.10808000  0.00000000
C        C    0.96541000  0.07349000  0.50844000  0.00000000
C        C    0.10808000  0.53459000  0.04303000  0.00000000
C        C    0.01284000  0.38905000  0.90711000  0.00000000
C        C    0.98716000  0.87621000  0.89427000  0.00000000
C        C    0.48716000  0.39427000  0.37621000  0.00000000
C        C    0.61095000  0.01806000  0.62379000  0.00000000
C        C    0.48194000  0.09289000  0.60573000  0.00000000
C        C    0.39427000  0.37621000  0.48716000  0.00000000
C        C    0.89427000  0.98716000  0.87621000  0.00000000
C        C    0.51284000  0.40711000  0.88905000  0.00000000
C        C    0.37621000  0.48716000  0.39427000  0.00000000
C        C    0.90711000  0.01284000  0.38905000  0.00000000
C        C    0.11095000  0.12379000  0.51806000  0.00000000
C        C    0.38905000  0.90711000  0.01284000  0.00000000
C        C    0.87621000  0.89427000  0.98716000  0.00000000
C        C    0.88905000  0.51284000  0.40711000  0.00000000
C        C    0.10573000  0.59289000  0.98194000  0.00000000
C        C    0.01806000  0.62379000  0.61095000  0.00000000
C        C    0.40711000  0.88905000  0.51284000  0.00000000
C        C    0.59289000  0.98194000  0.10573000  0.00000000
C        C    0.60573000  0.48194000  0.09289000  0.00000000
C        C    0.62379000  0.61095000  0.01806000  0.00000000
C        C    0.09289000  0.60573000  0.48194000  0.00000000
C        C    0.51806000  0.11095000  0.12379000  0.00000000
C        C    0.98194000  0.10573000  0.59289000  0.00000000
C        C    0.12379000  0.51806000  0.11095000  0.00000000
C        C    0.02340000  0.38095000  0.93991000  0.00000000
C        C    0.97660000  0.85755000  0.91651000  0.00000000
C        C    0.47660000  0.41651000  0.35755000  0.00000000
C        C    0.61905000  0.05896000  0.64245000  0.00000000
C        C    0.44104000  0.06009000  0.58349000  0.00000000
C        C    0.41651000  0.35755000  0.47660000  0.00000000
C        C    0.91651000  0.97660000  0.85755000  0.00000000
C        C    0.52340000  0.43991000  0.88095000  0.00000000
C        C    0.35755000  0.47660000  0.41651000  0.00000000
C        C    0.93991000  0.02340000  0.38095000  0.00000000
C        C    0.11905000  0.14245000  0.55896000  0.00000000
C        C    0.38095000  0.93991000  0.02340000  0.00000000
C        C    0.85755000  0.91651000  0.97660000  0.00000000
C        C    0.88095000  0.52340000  0.43991000  0.00000000
C        C    0.08349000  0.56009000  0.94104000  0.00000000
C        C    0.05896000  0.64245000  0.61905000  0.00000000
C        C    0.43991000  0.88095000  0.52340000  0.00000000
C        C    0.56009000  0.94104000  0.08349000  0.00000000
C        C    0.58349000  0.44104000  0.06009000  0.00000000
C        C    0.64245000  0.61905000  0.05896000  0.00000000
C        C    0.06009000  0.58349000  0.44104000  0.00000000
C        C    0.55896000  0.11905000  0.14245000  0.00000000
C        C    0.94104000  0.08349000  0.56009000  0.00000000
C        C    0.14245000  0.55896000  0.11905000  0.00000000
C        C    0.04905000  0.41370000  0.98191000  0.00000000
C        C    0.95095000  0.86465000  0.93286000  0.00000000
C        C    0.45095000  0.43286000  0.36465000  0.00000000
C        C    0.58630000  0.06821000  0.63535000  0.00000000
C        C    0.43179000  0.01809000  0.56714000  0.00000000
C        C    0.43286000  0.36465000  0.45095000  0.00000000
C        C    0.93286000  0.95095000  0.86465000  0.00000000
C        C    0.54905000  0.48191000  0.91370000  0.00000000
C        C    0.36465000  0.45095000  0.43286000  0.00000000
C        C    0.98191000  0.04905000  0.41370000  0.00000000
C        C    0.08630000  0.13535000  0.56821000  0.00000000
C        C    0.41370000  0.98191000  0.04905000  0.00000000
C        C    0.86465000  0.93286000  0.95095000  0.00000000
C        C    0.91370000  0.54905000  0.48191000  0.00000000
C        C    0.06714000  0.51809000  0.93179000  0.00000000
C        C    0.06821000  0.63535000  0.58630000  0.00000000
C        C    0.48191000  0.91370000  0.54905000  0.00000000
C        C    0.51809000  0.93179000  0.06714000  0.00000000
C        C    0.56714000  0.43179000  0.01809000  0.00000000
C        C    0.63535000  0.58630000  0.06821000  0.00000000
C        C    0.01809000  0.56714000  0.43179000  0.00000000
C        C    0.56821000  0.08630000  0.13535000  0.00000000
C        C    0.93179000  0.06714000  0.51809000  0.00000000
C        C    0.13535000  0.56821000  0.08630000  0.00000000
C        C    0.02826000  0.43039000  0.91439000  0.00000000
C        C    0.97174000  0.90213000  0.88613000  0.00000000
C        C    0.47174000  0.38613000  0.40213000  0.00000000
C        C    0.56961000  0.98400000  0.59787000  0.00000000
C        C    0.51600000  0.08561000  0.61387000  0.00000000
C        C    0.38613000  0.40213000  0.47174000  0.00000000
C        C    0.88613000  0.97174000  0.90213000  0.00000000
C        C    0.52826000  0.41439000  0.93039000  0.00000000
C        C    0.40213000  0.47174000  0.38613000  0.00000000
C        C    0.91439000  0.02826000  0.43039000  0.00000000
C        C    0.06961000  0.09787000  0.48400000  0.00000000
C        C    0.43039000  0.91439000  0.02826000  0.00000000
C        C    0.90213000  0.88613000  0.97174000  0.00000000
C        C    0.93039000  0.52826000  0.41439000  0.00000000
C        C    0.11387000  0.58561000  0.01600000  0.00000000
C        C    0.98400000  0.59787000  0.56961000  0.00000000
C        C    0.41439000  0.93039000  0.52826000  0.00000000
C        C    0.58561000  0.01600000  0.11387000  0.00000000
C        C    0.61387000  0.51600000  0.08561000  0.00000000
C        C    0.59787000  0.56961000  0.98400000  0.00000000
C        C    0.08561000  0.61387000  0.51600000  0.00000000
C        C    0.48400000  0.06961000  0.09787000  0.00000000
C        C    0.01600000  0.11387000  0.58561000  0.00000000
C        C    0.09787000  0.48400000  0.06961000  0.00000000
C        C    0.09737000  0.66693000  0.86500000  0.00000000
C        C    0.90263000  0.06956000  0.76763000  0.00000000
C        C    0.40263000  0.26763000  0.56956000  0.00000000
C        C    0.33307000  0.69807000  0.43044000  0.00000000
C        C    0.80193000  0.13500000  0.73237000  0.00000000
C        C    0.26763000  0.56956000  0.40263000  0.00000000
C        C    0.76763000  0.90263000  0.06956000  0.00000000
C        C    0.59737000  0.36500000  0.16693000  0.00000000
C        C    0.56956000  0.40263000  0.26763000  0.00000000
C        C    0.86500000  0.09737000  0.66693000  0.00000000
C        C    0.83307000  0.93044000  0.19807000  0.00000000
C        C    0.66693000  0.86500000  0.09737000  0.00000000
C        C    0.06956000  0.76763000  0.90263000  0.00000000
C        C    0.16693000  0.59737000  0.36500000  0.00000000
C        C    0.23237000  0.63500000  0.30193000  0.00000000
C        C    0.69807000  0.43044000  0.33307000  0.00000000
C        C    0.36500000  0.16693000  0.59737000  0.00000000
C        C    0.63500000  0.30193000  0.23237000  0.00000000
C        C    0.73237000  0.80193000  0.13500000  0.00000000
C        C    0.43044000  0.33307000  0.69807000  0.00000000
C        C    0.13500000  0.73237000  0.80193000  0.00000000
C        C    0.19807000  0.83307000  0.93044000  0.00000000
C        C    0.30193000  0.23237000  0.63500000  0.00000000
C        C    0.93044000  0.19807000  0.83307000  0.00000000
C        C    0.11725000  0.71060000  0.89361000  0.00000000
C        C    0.88275000  0.09335000  0.77636000  0.00000000
C        C    0.38275000  0.27636000  0.59335000  0.00000000
C        C    0.28940000  0.68301000  0.40665000  0.00000000
C        C    0.81699000  0.10639000  0.72364000  0.00000000
C        C    0.27636000  0.59335000  0.38275000  0.00000000
C        C    0.77636000  0.88275000  0.09335000  0.00000000
C        C    0.61725000  0.39361000  0.21060000  0.00000000
C        C    0.59335000  0.38275000  0.27636000  0.00000000
C        C    0.89361000  0.11725000  0.71060000  0.00000000
C        C    0.78940000  0.90665000  0.18301000  0.00000000
C        C    0.71060000  0.89361000  0.11725000  0.00000000
C        C    0.09335000  0.77636000  0.88275000  0.00000000
C        C    0.21060000  0.61725000  0.39361000  0.00000000
C        C    0.22364000  0.60639000  0.31699000  0.00000000
C        C    0.68301000  0.40665000  0.28940000  0.00000000
C        C    0.39361000  0.21060000  0.61725000  0.00000000
C        C    0.60639000  0.31699000  0.22364000  0.00000000
C        C    0.72364000  0.81699000  0.10639000  0.00000000
C        C    0.40665000  0.28940000  0.68301000  0.00000000
C        C    0.10639000  0.72364000  0.81699000  0.00000000
C        C    0.18301000  0.78940000  0.90665000  0.00000000
C        C    0.31699000  0.22364000  0.60639000  0.00000000
C        C    0.90665000  0.18301000  0.78940000  0.00000000
C        C    0.13267000  0.72497000  0.93720000  0.00000000
C        C    0.86733000  0.09230000  0.80453000  0.00000000
C        C    0.36733000  0.30453000  0.59230000  0.00000000
C        C    0.27503000  0.71223000  0.40770000  0.00000000
C        C    0.78777000  0.06280000  0.69547000  0.00000000
C        C    0.30453000  0.59230000  0.36733000  0.00000000
C        C    0.80453000  0.86733000  0.09230000  0.00000000
C        C    0.63267000  0.43720000  0.22497000  0.00000000
C        C    0.59230000  0.36733000  0.30453000  0.00000000
C        C    0.93720000  0.13267000  0.72497000  0.00000000
C        C    0.77503000  0.90770000  0.21223000  0.00000000
C        C    0.72497000  0.93720000  0.13267000  0.00000000
C        C    0.09230000  0.80453000  0.86733000  0.00000000
C        C    0.22497000  0.63267000  0.43720000  0.00000000
C        C    0.19547000  0.56280000  0.28777000  0.00000000
C        C    0.71223000  0.40770000  0.27503000  0.00000000
C        C    0.43720000  0.22497000  0.63267000  0.00000000
C        C    0.56280000  0.28777000  0.19547000  0.00000000
C        C    0.69547000  0.78777000  0.06280000  0.00000000
C        C    0.40770000  0.27503000  0.71223000  0.00000000
C        C    0.06280000  0.69547000  0.78777000  0.00000000
C        C    0.21223000  0.77503000  0.90770000  0.00000000
C        C    0.28777000  0.19547000  0.56280000  0.00000000
C        C    0.90770000  0.21223000  0.77503000  0.00000000
C        C    0.12779000  0.69598000  0.95197000  0.00000000
C        C    0.87221000  0.06819000  0.82418000  0.00000000
C        C    0.37221000  0.32418000  0.56819000  0.00000000
C        C    0.30402000  0.75599000  0.43181000  0.00000000
C        C    0.74401000  0.04803000  0.67582000  0.00000000
C        C    0.32418000  0.56819000  0.37221000  0.00000000
C        C    0.82418000  0.87221000  0.06819000  0.00000000
C        C    0.62779000  0.45197000  0.19598000  0.00000000
C        C    0.56819000  0.37221000  0.32418000  0.00000000
C        C    0.95197000  0.12779000  0.69598000  0.00000000
C        C    0.80402000  0.93181000  0.25599000  0.00000000
C        C    0.69598000  0.95197000  0.12779000  0.00000000
C        C    0.06819000  0.82418000  0.87221000  0.00000000
C        C    0.19598000  0.62779000  0.45197000  0.00000000
C        C    0.17582000  0.54803000  0.24401000  0.00000000
C        C    0.75599000  0.43181000  0.30402000  0.00000000
C        C    0.45197000  0.19598000  0.62779000  0.00000000
C        C    0.54803000  0.24401000  0.17582000  0.00000000
C        C    0.67582000  0.74401000  0.04803000  0.00000000
C        C    0.43181000  0.30402000  0.75599000  0.00000000
C        C    0.04803000  0.67582000  0.74401000  0.00000000
C        C    0.25599000  0.80402000  0.93181000  0.00000000
C        C    0.24401000  0.17582000  0.54803000  0.00000000
C        C    0.93181000  0.25599000  0.80402000  0.00000000
C        C    0.10745000  0.65223000  0.92328000  0.00000000
C        C    0.89255000  0.04478000  0.81583000  0.00000000
C        C    0.39255000  0.31583000  0.54478000  0.00000000
C        C    0.34777000  0.77105000  0.45522000  0.00000000
C        C    0.72895000  0.07672000  0.68417000  0.00000000
C        C    0.31583000  0.54478000  0.39255000  0.00000000
C        C    0.81583000  0.89255000  0.04478000  0.00000000
C        C    0.60745000  0.42328000  0.15223000  0.00000000
C        C    0.54478000  0.39255000  0.31583000  0.00000000
C        C    0.92328000  0.10745000  0.65223000  0.00000000
C        C    0.84777000  0.95522000  0.27105000  0.00000000
C        C    0.65223000  0.92328000  0.10745000  0.00000000
C        C    0.04478000  0.81583000  0.89255000  0.00000000
C        C    0.15223000  0.60745000  0.42328000  0.00000000
C        C    0.18417000  0.57672000  0.22895000  0.00000000
C        C    0.77105000  0.45522000  0.34777000  0.00000000
C        C    0.42328000  0.15223000  0.60745000  0.00000000
C        C    0.57672000  0.22895000  0.18417000  0.00000000
C        C    0.68417000  0.72895000  0.07672000  0.00000000
C        C    0.45522000  0.34777000  0.77105000  0.00000000
C        C    0.07672000  0.68417000  0.72895000  0.00000000
C        C    0.27105000  0.84777000  0.95522000  0.00000000
C        C    0.22895000  0.18417000  0.57672000  0.00000000
C        C    0.95522000  0.27105000  0.84777000  0.00000000
C        C    0.09228000  0.63787000  0.87971000  0.00000000
C        C    0.90772000  0.04559000  0.78743000  0.00000000
C        C    0.40772000  0.28743000  0.54559000  0.00000000
C        C    0.36213000  0.74184000  0.45441000  0.00000000
C        C    0.75816000  0.12029000  0.71257000  0.00000000
C        C    0.28743000  0.54559000  0.40772000  0.00000000
C        C    0.78743000  0.90772000  0.04559000  0.00000000
C        C    0.59228000  0.37971000  0.13787000  0.00000000
C        C    0.54559000  0.40772000  0.28743000  0.00000000
C        C    0.87971000  0.09228000  0.63787000  0.00000000
C        C    0.86213000  0.95441000  0.24184000  0.00000000
C        C    0.63787000  0.87971000  0.09228000  0.00000000
C        C    0.04559000  0.78743000  0.90772000  0.00000000
C        C    0.13787000  0.59228000  0.37971000  0.00000000
C        C    0.21257000  0.62029000  0.25816000  0.00000000
C        C    0.74184000  0.45441000  0.36213000  0.00000000
C        C    0.37971000  0.13787000  0.59228000  0.00000000
C        C    0.62029000  0.25816000  0.21257000  0.00000000
C        C    0.71257000  0.75816000  0.12029000  0.00000000
C        C    0.45441000  0.36213000  0.74184000  0.00000000
C        C    0.12029000  0.71257000  0.75816000  0.00000000
C        C    0.24184000  0.86213000  0.95441000  0.00000000
C        C    0.25816000  0.21257000  0.62029000  0.00000000
C        C    0.95441000  0.24184000  0.86213000  0.00000000
Si       Si   0.25000000  0.62500000  0.37500000  0.00000000
Si       Si   0.62500000  0.37500000  0.25000000  0.00000000
Si       Si   0.12500000  0.75000000  0.87500000  0.00000000
Si       Si   0.75000000  0.87500000  0.12500000  0.00000000
Si       Si   0.37500000  0.25000000  0.62500000  0.00000000
Si       Si   0.87500000  0.12500000  0.75000000  0.00000000
H        H    0.05599000  0.40410000  0.00549000  0.00000000
H        H    0.94401000  0.84811000  0.94950000  0.00000000
H        H    0.44401000  0.44950000  0.34811000  0.00000000
H        H    0.59590000  0.10139000  0.65189000  0.00000000
H        H    0.39861000  0.99451000  0.55050000  0.00000000
H        H    0.44950000  0.34811000  0.44401000  0.00000000
H        H    0.94950000  0.94401000  0.84811000  0.00000000
H        H    0.55599000  0.50549000  0.90410000  0.00000000
H        H    0.34811000  0.44401000  0.44950000  0.00000000
H        H    0.00549000  0.05599000  0.40410000  0.00000000
H        H    0.09590000  0.15189000  0.60139000  0.00000000
H        H    0.40410000  0.00549000  0.05599000  0.00000000
H        H    0.84811000  0.94950000  0.94401000  0.00000000
H        H    0.90410000  0.55599000  0.50549000  0.00000000
H        H    0.05050000  0.49451000  0.89861000  0.00000000
H        H    0.10139000  0.65189000  0.59590000  0.00000000
H        H    0.50549000  0.90410000  0.55599000  0.00000000
H        H    0.49451000  0.89861000  0.05050000  0.00000000
H        H    0.55050000  0.39861000  0.99451000  0.00000000
H        H    0.65189000  0.59590000  0.10139000  0.00000000
H        H    0.99451000  0.55050000  0.39861000  0.00000000
H        H    0.60139000  0.09590000  0.15189000  0.00000000
H        H    0.89861000  0.05050000  0.49451000  0.00000000
H        H    0.15189000  0.60139000  0.09590000  0.00000000
H        H    0.01773000  0.43351000  0.88650000  0.00000000
H        H    0.98227000  0.91578000  0.86877000  0.00000000
H        H    0.48227000  0.36877000  0.41578000  0.00000000
H        H    0.56649000  0.95299000  0.58422000  0.00000000
H        H    0.54701000  0.11350000  0.63123000  0.00000000
H        H    0.36877000  0.41578000  0.48227000  0.00000000
H        H    0.86877000  0.98227000  0.91578000  0.00000000
H        H    0.51773000  0.38650000  0.93351000  0.00000000
H        H    0.41578000  0.48227000  0.36877000  0.00000000
H        H    0.88650000  0.01773000  0.43351000  0.00000000
H        H    0.06649000  0.08422000  0.45299000  0.00000000
H        H    0.43351000  0.88650000  0.01773000  0.00000000
H        H    0.91578000  0.86877000  0.98227000  0.00000000
H        H    0.93351000  0.51773000  0.38650000  0.00000000
H        H    0.13123000  0.61350000  0.04701000  0.00000000
H        H    0.95299000  0.58422000  0.56649000  0.00000000
H        H    0.38650000  0.93351000  0.51773000  0.00000000
H        H    0.61350000  0.04701000  0.13123000  0.00000000
H        H    0.63123000  0.54701000  0.11350000  0.00000000
H        H    0.58422000  0.56649000  0.95299000  0.00000000
H        H    0.11350000  0.63123000  0.54701000  0.00000000
H        H    0.45299000  0.06649000  0.08422000  0.00000000
H        H    0.04701000  0.13123000  0.61350000  0.00000000
H        H    0.08422000  0.45299000  0.06649000  0.00000000
H        H    0.08584000  0.65506000  0.83134000  0.00000000
H        H    0.91416000  0.06922000  0.74550000  0.00000000
H        H    0.41416000  0.24550000  0.56922000  0.00000000
H        H    0.34494000  0.67628000  0.43078000  0.00000000
H        H    0.82372000  0.16866000  0.75450000  0.00000000
H        H    0.24550000  0.56922000  0.41416000  0.00000000
H        H    0.74550000  0.91416000  0.06922000  0.00000000
H        H    0.58584000  0.33134000  0.15506000  0.00000000
H        H    0.56922000  0.41416000  0.24550000  0.00000000
H        H    0.83134000  0.08584000  0.65506000  0.00000000
H        H    0.84494000  0.93078000  0.17628000  0.00000000
H        H    0.65506000  0.83134000  0.08584000  0.00000000
H        H    0.06922000  0.74550000  0.91416000  0.00000000
H        H    0.15506000  0.58584000  0.33134000  0.00000000
H        H    0.25450000  0.66866000  0.32372000  0.00000000
H        H    0.67628000  0.43078000  0.34494000  0.00000000
H        H    0.33134000  0.15506000  0.58584000  0.00000000
H        H    0.66866000  0.32372000  0.25450000  0.00000000
H        H    0.75450000  0.82372000  0.16866000  0.00000000
H        H    0.43078000  0.34494000  0.67628000  0.00000000
H        H    0.16866000  0.75450000  0.82372000  0.00000000
H        H    0.17628000  0.84494000  0.93078000  0.00000000
H        H    0.32372000  0.25450000  0.66866000  0.00000000
H        H    0.93078000  0.17628000  0.84494000  0.00000000
H        H    0.07668000  0.60425000  0.85699000  0.00000000
H        H    0.92332000  0.02757000  0.78031000  0.00000000
H        H    0.42332000  0.28031000  0.52757000  0.00000000
H        H    0.39575000  0.75274000  0.47243000  0.00000000
H        H    0.74726000  0.14301000  0.71969000  0.00000000
H        H    0.28031000  0.52757000  0.42332000  0.00000000
H        H    0.78031000  0.92332000  0.02757000  0.00000000
H        H    0.57668000  0.35699000  0.10425000  0.00000000
H        H    0.52757000  0.42332000  0.28031000  0.00000000
H        H    0.85699000  0.07668000  0.60425000  0.00000000
H        H    0.89575000  0.97243000  0.25274000  0.00000000
H        H    0.60425000  0.85699000  0.07668000  0.00000000
H        H    0.02757000  0.78031000  0.92332000  0.00000000
H        H    0.10425000  0.57668000  0.35699000  0.00000000
H        H    0.21969000  0.64301000  0.24726000  0.00000000
H        H    0.75274000  0.47243000  0.39575000  0.00000000
H        H    0.35699000  0.10425000  0.57668000  0.00000000
H        H    0.64301000  0.24726000  0.21969000  0.00000000
H        H    0.71969000  0.74726000  0.14301000  0.00000000
H        H    0.47243000  0.39575000  0.75274000  0.00000000
H        H    0.14301000  0.71969000  0.74726000  0.00000000
H        H    0.25274000  0.89575000  0.97243000  0.00000000
H        H    0.24726000  0.21969000  0.64301000  0.00000000
H        H    0.97243000  0.25274000  0.89575000  0.00000000
H        H    0.14850000  0.75865000  0.95979000  0.00000000
H        H    0.85150000  0.11015000  0.81129000  0.00000000
H        H    0.35150000  0.31129000  0.61015000  0.00000000
H        H    0.24135000  0.70114000  0.38985000  0.00000000
H        H    0.79886000  0.04021000  0.68871000  0.00000000
H        H    0.31129000  0.61015000  0.35150000  0.00000000
H        H    0.81129000  0.85150000  0.11015000  0.00000000
H        H    0.64850000  0.45979000  0.25865000  0.00000000
H        H    0.61015000  0.35150000  0.31129000  0.00000000
H        H    0.95979000  0.14850000  0.75865000  0.00000000
H        H    0.74135000  0.88985000  0.20114000  0.00000000
H        H    0.75865000  0.95979000  0.14850000  0.00000000
H        H    0.11015000  0.81129000  0.85150000  0.00000000
H        H    0.25865000  0.64850000  0.45979000  0.00000000
H        H    0.18871000  0.54021000  0.29886000  0.00000000
H        H    0.70114000  0.38985000  0.24135000  0.00000000
H        H    0.45979000  0.25865000  0.64850000  0.00000000
H        H    0.54021000  0.29886000  0.18871000  0.00000000
H        H    0.68871000  0.79886000  0.04021000  0.00000000
H        H    0.38985000  0.24135000  0.70114000  0.00000000
H        H    0.04021000  0.68871000  0.79886000  0.00000000
H        H    0.20114000  0.74135000  0.88985000  0.00000000
H        H    0.29886000  0.18871000  0.54021000  0.00000000
H        H    0.88985000  0.20114000  0.74135000  0.00000000
H        H    0.13988000  0.70782000  0.98578000  0.00000000
H        H    0.86012000  0.06794000  0.84590000  0.00000000
H        H    0.36012000  0.34590000  0.56794000  0.00000000
H        H    0.29218000  0.77796000  0.43206000  0.00000000
H        H    0.72204000  0.01422000  0.65410000  0.00000000
H        H    0.34590000  0.56794000  0.36012000  0.00000000
H        H    0.84590000  0.86012000  0.06794000  0.00000000
H        H    0.63988000  0.48578000  0.20782000  0.00000000
H        H    0.56794000  0.36012000  0.34590000  0.00000000
H        H    0.98578000  0.13988000  0.70782000  0.00000000
H        H    0.79218000  0.93206000  0.27796000  0.00000000
H        H    0.70782000  0.98578000  0.13988000  0.00000000
H        H    0.06794000  0.84590000  0.86012000  0.00000000
H        H    0.20782000  0.63988000  0.48578000  0.00000000
H        H    0.15410000  0.51422000  0.22204000  0.00000000
H        H    0.77796000  0.43206000  0.29218000  0.00000000
H        H    0.48578000  0.20782000  0.63988000  0.00000000
H        H    0.51422000  0.22204000  0.15410000  0.00000000
H        H    0.65410000  0.72204000  0.01422000  0.00000000
H        H    0.43206000  0.29218000  0.77796000  0.00000000
H        H    0.01422000  0.65410000  0.72204000  0.00000000
H        H    0.27796000  0.79218000  0.93206000  0.00000000
H        H    0.22204000  0.15410000  0.51422000  0.00000000
H        H    0.93206000  0.27796000  0.79218000  0.00000000
