data_COF-108

_cell_length_a  28.40100000
_cell_length_b  28.40100000
_cell_length_c  28.40100000
_cell_angle_alpha  90.00000000
_cell_angle_beta  90.00000000
_cell_angle_gamma  90.00000000


_symmetry_space_group_name_Hall ' P 1'
_symmetry_space_group_name_H-M  'P 1'
_symmetry_Int_Tables_number     1

loop_
_atom_site_label
_atom_site_type_symbol
_atom_site_fract_x
_atom_site_fract_y
_atom_site_fract_z
_atom_site_charge
O        O    0.85456000  0.32857000  0.91543000  0.00000000
O        O    0.32857000  0.91543000  0.85456000  0.00000000
O        O    0.08457000  0.32857000  0.14544000  0.00000000
O        O    0.91543000  0.32857000  0.85456000  0.00000000
O        O    0.14544000  0.32857000  0.08457000  0.00000000
O        O    0.67143000  0.08457000  0.85456000  0.00000000
O        O    0.91543000  0.67143000  0.14544000  0.00000000
O        O    0.08457000  0.85456000  0.67143000  0.00000000
O        O    0.85456000  0.91543000  0.32857000  0.00000000
O        O    0.08457000  0.14544000  0.32857000  0.00000000
O        O    0.85456000  0.67143000  0.08457000  0.00000000
O        O    0.32857000  0.14544000  0.08457000  0.00000000
O        O    0.14544000  0.08457000  0.32857000  0.00000000
O        O    0.91543000  0.85456000  0.32857000  0.00000000
O        O    0.67143000  0.91543000  0.14544000  0.00000000
O        O    0.08457000  0.67143000  0.85456000  0.00000000
O        O    0.32857000  0.08457000  0.14544000  0.00000000
O        O    0.67143000  0.85456000  0.08457000  0.00000000
O        O    0.32857000  0.85456000  0.91543000  0.00000000
O        O    0.85456000  0.08457000  0.67143000  0.00000000
O        O    0.67143000  0.14544000  0.91543000  0.00000000
O        O    0.14544000  0.67143000  0.91543000  0.00000000
O        O    0.14544000  0.91543000  0.67143000  0.00000000
O        O    0.91543000  0.14544000  0.67143000  0.00000000
B        B    0.89710000  0.35114000  0.89710000  0.00000000
B        B    0.10290000  0.35114000  0.10290000  0.00000000
B        B    0.89710000  0.64886000  0.10290000  0.00000000
B        B    0.10290000  0.10290000  0.35114000  0.00000000
B        B    0.89710000  0.89710000  0.35114000  0.00000000
B        B    0.35114000  0.10290000  0.10290000  0.00000000
B        B    0.64886000  0.89710000  0.10290000  0.00000000
B        B    0.35114000  0.89710000  0.89710000  0.00000000
B        B    0.64886000  0.10290000  0.89710000  0.00000000
B        B    0.10290000  0.64886000  0.89710000  0.00000000
B        B    0.10290000  0.89710000  0.64886000  0.00000000
B        B    0.89710000  0.10290000  0.64886000  0.00000000
C        C    0.92264000  0.39298000  0.92264000  0.00000000
C        C    0.07736000  0.39298000  0.07736000  0.00000000
C        C    0.92264000  0.60702000  0.07736000  0.00000000
C        C    0.07736000  0.07736000  0.39298000  0.00000000
C        C    0.92264000  0.92264000  0.39298000  0.00000000
C        C    0.39298000  0.07736000  0.07736000  0.00000000
C        C    0.60702000  0.92264000  0.07736000  0.00000000
C        C    0.39298000  0.92264000  0.92264000  0.00000000
C        C    0.60702000  0.07736000  0.92264000  0.00000000
C        C    0.07736000  0.60702000  0.92264000  0.00000000
C        C    0.07736000  0.92264000  0.60702000  0.00000000
C        C    0.92264000  0.07736000  0.60702000  0.00000000
C        C    0.97038000  0.46705000  0.97038000  0.00000000
C        C    0.02962000  0.46705000  0.02962000  0.00000000
C        C    0.97038000  0.53295000  0.02962000  0.00000000
C        C    0.02962000  0.02962000  0.46705000  0.00000000
C        C    0.97038000  0.97038000  0.46705000  0.00000000
C        C    0.46705000  0.02962000  0.02962000  0.00000000
C        C    0.53295000  0.97038000  0.02962000  0.00000000
C        C    0.46705000  0.97038000  0.97038000  0.00000000
C        C    0.53295000  0.02962000  0.97038000  0.00000000
C        C    0.02962000  0.53295000  0.97038000  0.00000000
C        C    0.02962000  0.97038000  0.53295000  0.00000000
C        C    0.97038000  0.02962000  0.53295000  0.00000000
C        C    0.96472000  0.41116000  0.90473000  0.00000000
C        C    0.41116000  0.90473000  0.96472000  0.00000000
C        C    0.09527000  0.41116000  0.03528000  0.00000000
C        C    0.90473000  0.41116000  0.96472000  0.00000000
C        C    0.03528000  0.41116000  0.09527000  0.00000000
C        C    0.58884000  0.09527000  0.96472000  0.00000000
C        C    0.90473000  0.58884000  0.03528000  0.00000000
C        C    0.09527000  0.96472000  0.58884000  0.00000000
C        C    0.96472000  0.90473000  0.41116000  0.00000000
C        C    0.09527000  0.03528000  0.41116000  0.00000000
C        C    0.96472000  0.58884000  0.09527000  0.00000000
C        C    0.41116000  0.03528000  0.09527000  0.00000000
C        C    0.03528000  0.09527000  0.41116000  0.00000000
C        C    0.90473000  0.96472000  0.41116000  0.00000000
C        C    0.58884000  0.90473000  0.03528000  0.00000000
C        C    0.09527000  0.58884000  0.96472000  0.00000000
C        C    0.41116000  0.09527000  0.03528000  0.00000000
C        C    0.58884000  0.96472000  0.09527000  0.00000000
C        C    0.41116000  0.96472000  0.90473000  0.00000000
C        C    0.96472000  0.09527000  0.58884000  0.00000000
C        C    0.58884000  0.03528000  0.90473000  0.00000000
C        C    0.03528000  0.58884000  0.90473000  0.00000000
C        C    0.03528000  0.90473000  0.58884000  0.00000000
C        C    0.90473000  0.03528000  0.58884000  0.00000000
C        C    0.98865000  0.44691000  0.92861000  0.00000000
C        C    0.44691000  0.92861000  0.98865000  0.00000000
C        C    0.07139000  0.44691000  0.01135000  0.00000000
C        C    0.92861000  0.44691000  0.98865000  0.00000000
C        C    0.01135000  0.44691000  0.07139000  0.00000000
C        C    0.55309000  0.07139000  0.98865000  0.00000000
C        C    0.92861000  0.55309000  0.01135000  0.00000000
C        C    0.07139000  0.98865000  0.55309000  0.00000000
C        C    0.98865000  0.92861000  0.44691000  0.00000000
C        C    0.07139000  0.01135000  0.44691000  0.00000000
C        C    0.98865000  0.55309000  0.07139000  0.00000000
C        C    0.44691000  0.01135000  0.07139000  0.00000000
C        C    0.01135000  0.07139000  0.44691000  0.00000000
C        C    0.92861000  0.98865000  0.44691000  0.00000000
C        C    0.55309000  0.92861000  0.01135000  0.00000000
C        C    0.07139000  0.55309000  0.98865000  0.00000000
C        C    0.44691000  0.07139000  0.01135000  0.00000000
C        C    0.55309000  0.98865000  0.07139000  0.00000000
C        C    0.44691000  0.98865000  0.92861000  0.00000000
C        C    0.98865000  0.07139000  0.55309000  0.00000000
C        C    0.55309000  0.01135000  0.92861000  0.00000000
C        C    0.01135000  0.55309000  0.92861000  0.00000000
C        C    0.01135000  0.92861000  0.55309000  0.00000000
C        C    0.92861000  0.01135000  0.55309000  0.00000000
C        C    0.84820000  0.22309000  0.81243000  0.00000000
C        C    0.22309000  0.81243000  0.84820000  0.00000000
C        C    0.18757000  0.22309000  0.15180000  0.00000000
C        C    0.81243000  0.22309000  0.84820000  0.00000000
C        C    0.15180000  0.22309000  0.18757000  0.00000000
C        C    0.77691000  0.18757000  0.84820000  0.00000000
C        C    0.81243000  0.77691000  0.15180000  0.00000000
C        C    0.18757000  0.84820000  0.77691000  0.00000000
C        C    0.84820000  0.81243000  0.22309000  0.00000000
C        C    0.18757000  0.15180000  0.22309000  0.00000000
C        C    0.84820000  0.77691000  0.18757000  0.00000000
C        C    0.22309000  0.15180000  0.18757000  0.00000000
C        C    0.15180000  0.18757000  0.22309000  0.00000000
C        C    0.81243000  0.84820000  0.22309000  0.00000000
C        C    0.77691000  0.81243000  0.15180000  0.00000000
C        C    0.18757000  0.77691000  0.84820000  0.00000000
C        C    0.22309000  0.18757000  0.15180000  0.00000000
C        C    0.77691000  0.84820000  0.18757000  0.00000000
C        C    0.22309000  0.84820000  0.81243000  0.00000000
C        C    0.84820000  0.18757000  0.77691000  0.00000000
C        C    0.77691000  0.15180000  0.81243000  0.00000000
C        C    0.15180000  0.77691000  0.81243000  0.00000000
C        C    0.15180000  0.81243000  0.77691000  0.00000000
C        C    0.81243000  0.15180000  0.77691000  0.00000000
C        C    0.88278000  0.29274000  0.84893000  0.00000000
C        C    0.29274000  0.84893000  0.88278000  0.00000000
C        C    0.15107000  0.29274000  0.11722000  0.00000000
C        C    0.84893000  0.29274000  0.88278000  0.00000000
C        C    0.11722000  0.29274000  0.15107000  0.00000000
C        C    0.70726000  0.15107000  0.88278000  0.00000000
C        C    0.84893000  0.70726000  0.11722000  0.00000000
C        C    0.15107000  0.88278000  0.70726000  0.00000000
C        C    0.88278000  0.84893000  0.29274000  0.00000000
C        C    0.15107000  0.11722000  0.29274000  0.00000000
C        C    0.88278000  0.70726000  0.15107000  0.00000000
C        C    0.29274000  0.11722000  0.15107000  0.00000000
C        C    0.11722000  0.15107000  0.29274000  0.00000000
C        C    0.84893000  0.88278000  0.29274000  0.00000000
C        C    0.70726000  0.84893000  0.11722000  0.00000000
C        C    0.15107000  0.70726000  0.88278000  0.00000000
C        C    0.29274000  0.15107000  0.11722000  0.00000000
C        C    0.70726000  0.88278000  0.15107000  0.00000000
C        C    0.29274000  0.88278000  0.84893000  0.00000000
C        C    0.88278000  0.15107000  0.70726000  0.00000000
C        C    0.70726000  0.11722000  0.84893000  0.00000000
C        C    0.11722000  0.70726000  0.84893000  0.00000000
C        C    0.11722000  0.84893000  0.70726000  0.00000000
C        C    0.84893000  0.11722000  0.70726000  0.00000000
C        C    0.88337000  0.25899000  0.81373000  0.00000000
C        C    0.25899000  0.81373000  0.88337000  0.00000000
C        C    0.18627000  0.25899000  0.11663000  0.00000000
C        C    0.81373000  0.25899000  0.88337000  0.00000000
C        C    0.11663000  0.25899000  0.18627000  0.00000000
C        C    0.74101000  0.18627000  0.88337000  0.00000000
C        C    0.81373000  0.74101000  0.11663000  0.00000000
C        C    0.18627000  0.88337000  0.74101000  0.00000000
C        C    0.88337000  0.81373000  0.25899000  0.00000000
C        C    0.18627000  0.11663000  0.25899000  0.00000000
C        C    0.88337000  0.74101000  0.18627000  0.00000000
C        C    0.25899000  0.11663000  0.18627000  0.00000000
C        C    0.11663000  0.18627000  0.25899000  0.00000000
C        C    0.81373000  0.88337000  0.25899000  0.00000000
C        C    0.74101000  0.81373000  0.11663000  0.00000000
C        C    0.18627000  0.74101000  0.88337000  0.00000000
C        C    0.25899000  0.18627000  0.11663000  0.00000000
C        C    0.74101000  0.88337000  0.18627000  0.00000000
C        C    0.25899000  0.88337000  0.81373000  0.00000000
C        C    0.88337000  0.18627000  0.74101000  0.00000000
C        C    0.74101000  0.11663000  0.81373000  0.00000000
C        C    0.11663000  0.74101000  0.81373000  0.00000000
C        C    0.11663000  0.81373000  0.74101000  0.00000000
C        C    0.81373000  0.11663000  0.74101000  0.00000000
C        C    0.50000000  0.00000000  0.00000000  0.00000000
C        C    0.00000000  0.50000000  0.00000000  0.00000000
C        C    0.00000000  0.00000000  0.50000000  0.00000000
H        H    0.87282000  0.39695000  0.97993000  0.00000000
H        H    0.39695000  0.97993000  0.87282000  0.00000000
H        H    0.02007000  0.39695000  0.12718000  0.00000000
H        H    0.97993000  0.39695000  0.87282000  0.00000000
H        H    0.12718000  0.39695000  0.02007000  0.00000000
H        H    0.60305000  0.02007000  0.87282000  0.00000000
H        H    0.97993000  0.60305000  0.12718000  0.00000000
H        H    0.02007000  0.87282000  0.60305000  0.00000000
H        H    0.87282000  0.97993000  0.39695000  0.00000000
H        H    0.02007000  0.12718000  0.39695000  0.00000000
H        H    0.87282000  0.60305000  0.02007000  0.00000000
H        H    0.39695000  0.12718000  0.02007000  0.00000000
H        H    0.12718000  0.02007000  0.39695000  0.00000000
H        H    0.97993000  0.87282000  0.39695000  0.00000000
H        H    0.60305000  0.97993000  0.12718000  0.00000000
H        H    0.02007000  0.60305000  0.87282000  0.00000000
H        H    0.39695000  0.02007000  0.12718000  0.00000000
H        H    0.60305000  0.87282000  0.02007000  0.00000000
H        H    0.39695000  0.87282000  0.97993000  0.00000000
H        H    0.87282000  0.02007000  0.60305000  0.00000000
H        H    0.60305000  0.12718000  0.97993000  0.00000000
H        H    0.12718000  0.60305000  0.97993000  0.00000000
H        H    0.12718000  0.97993000  0.60305000  0.00000000
H        H    0.97993000  0.12718000  0.60305000  0.00000000
H        H    0.91468000  0.45804000  0.02225000  0.00000000
H        H    0.45804000  0.02225000  0.91468000  0.00000000
H        H    0.97775000  0.45804000  0.08532000  0.00000000
H        H    0.02225000  0.45804000  0.91468000  0.00000000
H        H    0.08532000  0.45804000  0.97775000  0.00000000
H        H    0.54196000  0.97775000  0.91468000  0.00000000
H        H    0.02225000  0.54196000  0.08532000  0.00000000
H        H    0.97775000  0.91468000  0.54196000  0.00000000
H        H    0.91468000  0.02225000  0.45804000  0.00000000
H        H    0.97775000  0.08532000  0.45804000  0.00000000
H        H    0.91468000  0.54196000  0.97775000  0.00000000
H        H    0.45804000  0.08532000  0.97775000  0.00000000
H        H    0.08532000  0.97775000  0.45804000  0.00000000
H        H    0.02225000  0.91468000  0.45804000  0.00000000
H        H    0.54196000  0.02225000  0.08532000  0.00000000
H        H    0.97775000  0.54196000  0.91468000  0.00000000
H        H    0.45804000  0.97775000  0.08532000  0.00000000
H        H    0.54196000  0.91468000  0.97775000  0.00000000
H        H    0.45804000  0.91468000  0.02225000  0.00000000
H        H    0.91468000  0.97775000  0.54196000  0.00000000
H        H    0.54196000  0.08532000  0.02225000  0.00000000
H        H    0.08532000  0.54196000  0.02225000  0.00000000
H        H    0.08532000  0.02225000  0.54196000  0.00000000
H        H    0.02225000  0.08532000  0.54196000  0.00000000
H        H    0.91161000  0.26200000  0.78882000  0.00000000
H        H    0.26200000  0.78882000  0.91161000  0.00000000
H        H    0.21118000  0.26200000  0.08839000  0.00000000
H        H    0.78882000  0.26200000  0.91161000  0.00000000
H        H    0.08839000  0.26200000  0.21118000  0.00000000
H        H    0.73800000  0.21118000  0.91161000  0.00000000
H        H    0.78882000  0.73800000  0.08839000  0.00000000
H        H    0.21118000  0.91161000  0.73800000  0.00000000
H        H    0.91161000  0.78882000  0.26200000  0.00000000
H        H    0.21118000  0.08839000  0.26200000  0.00000000
H        H    0.91161000  0.73800000  0.21118000  0.00000000
H        H    0.26200000  0.08839000  0.21118000  0.00000000
H        H    0.08839000  0.21118000  0.26200000  0.00000000
H        H    0.78882000  0.91161000  0.26200000  0.00000000
H        H    0.73800000  0.78882000  0.08839000  0.00000000
H        H    0.21118000  0.73800000  0.91161000  0.00000000
H        H    0.26200000  0.21118000  0.08839000  0.00000000
H        H    0.73800000  0.91161000  0.21118000  0.00000000
H        H    0.26200000  0.91161000  0.78882000  0.00000000
H        H    0.91161000  0.21118000  0.73800000  0.00000000
H        H    0.73800000  0.08839000  0.78882000  0.00000000
H        H    0.08839000  0.73800000  0.78882000  0.00000000
H        H    0.08839000  0.78882000  0.73800000  0.00000000
H        H    0.78882000  0.08839000  0.73800000  0.00000000
