data_COF-103

_cell_length_a  24.46322580
_cell_length_b  24.46322580
_cell_length_c  24.46322580
_cell_angle_alpha  109.47122063
_cell_angle_beta  109.47122063
_cell_angle_gamma  109.47122063


_symmetry_space_group_name_Hall ' P 1'
_symmetry_space_group_name_H-M  'P 1'
_symmetry_Int_Tables_number     1

loop_
_atom_site_label
_atom_site_type_symbol
_atom_site_fract_x
_atom_site_fract_y
_atom_site_fract_z
_atom_site_charge
O        O    0.04848000  0.07283000  0.12089000  0.00000000
O        O    0.42759000  0.95194000  0.87911000  0.00000000
O        O    0.45194000  0.92759000  0.37911000  0.00000000
O        O    0.95194000  0.87911000  0.42759000  0.00000000
O        O    0.07241000  0.95152000  0.52435000  0.00000000
O        O    0.47565000  0.04806000  0.42717000  0.00000000
O        O    0.54806000  0.97565000  0.92717000  0.00000000
O        O    0.57283000  0.54848000  0.62089000  0.00000000
O        O    0.57241000  0.02435000  0.45152000  0.00000000
O        O    0.42717000  0.47565000  0.04806000  0.00000000
O        O    0.37911000  0.45194000  0.92759000  0.00000000
O        O    0.02435000  0.45152000  0.57241000  0.00000000
O        O    0.52435000  0.07241000  0.95152000  0.00000000
O        O    0.95152000  0.52435000  0.07241000  0.00000000
O        O    0.12089000  0.04848000  0.07283000  0.00000000
O        O    0.92717000  0.54806000  0.97565000  0.00000000
O        O    0.97565000  0.92717000  0.54806000  0.00000000
O        O    0.92759000  0.37911000  0.45194000  0.00000000
O        O    0.54848000  0.62089000  0.57283000  0.00000000
O        O    0.62089000  0.57283000  0.54848000  0.00000000
O        O    0.87911000  0.42759000  0.95194000  0.00000000
O        O    0.04806000  0.42717000  0.47565000  0.00000000
O        O    0.45152000  0.57241000  0.02435000  0.00000000
O        O    0.07283000  0.12089000  0.04848000  0.00000000
B        B    0.04167000  0.11217000  0.08846000  0.00000000
B        B    0.45321000  0.02371000  0.91154000  0.00000000
B        B    0.52371000  0.95321000  0.41154000  0.00000000
B        B    0.02371000  0.91154000  0.45321000  0.00000000
B        B    0.04679000  0.95833000  0.57050000  0.00000000
B        B    0.42950000  0.97629000  0.38783000  0.00000000
B        B    0.47629000  0.92950000  0.88783000  0.00000000
B        B    0.61217000  0.54167000  0.58846000  0.00000000
B        B    0.54679000  0.07050000  0.45833000  0.00000000
B        B    0.38783000  0.42950000  0.97629000  0.00000000
B        B    0.41154000  0.52371000  0.95321000  0.00000000
B        B    0.07050000  0.45833000  0.54679000  0.00000000
B        B    0.57050000  0.04679000  0.95833000  0.00000000
B        B    0.95833000  0.57050000  0.04679000  0.00000000
B        B    0.08846000  0.04167000  0.11217000  0.00000000
B        B    0.88783000  0.47629000  0.92950000  0.00000000
B        B    0.92950000  0.88783000  0.47629000  0.00000000
B        B    0.95321000  0.41154000  0.52371000  0.00000000
B        B    0.54167000  0.58846000  0.61217000  0.00000000
B        B    0.58846000  0.61217000  0.54167000  0.00000000
B        B    0.91154000  0.45321000  0.02371000  0.00000000
B        B    0.97629000  0.38783000  0.42950000  0.00000000
B        B    0.45833000  0.54679000  0.07050000  0.00000000
B        B    0.11217000  0.08846000  0.04167000  0.00000000
C        C    0.95929000  0.22033000  0.07964000  0.00000000
C        C    0.37965000  0.14069000  0.92036000  0.00000000
C        C    0.64069000  0.87965000  0.42036000  0.00000000
C        C    0.14069000  0.92036000  0.37965000  0.00000000
C        C    0.12035000  0.04071000  0.76104000  0.00000000
C        C    0.23896000  0.85931000  0.27967000  0.00000000
C        C    0.35931000  0.73896000  0.77967000  0.00000000
C        C    0.72033000  0.45929000  0.57964000  0.00000000
C        C    0.62035000  0.26104000  0.54071000  0.00000000
C        C    0.27967000  0.23896000  0.85931000  0.00000000
C        C    0.42036000  0.64069000  0.87965000  0.00000000
C        C    0.26104000  0.54071000  0.62035000  0.00000000
C        C    0.76104000  0.12035000  0.04071000  0.00000000
C        C    0.04071000  0.76104000  0.12035000  0.00000000
C        C    0.07964000  0.95929000  0.22033000  0.00000000
C        C    0.77967000  0.35931000  0.73896000  0.00000000
C        C    0.73896000  0.77967000  0.35931000  0.00000000
C        C    0.87965000  0.42036000  0.64069000  0.00000000
C        C    0.45929000  0.57964000  0.72033000  0.00000000
C        C    0.57964000  0.72033000  0.45929000  0.00000000
C        C    0.92036000  0.37965000  0.14069000  0.00000000
C        C    0.85931000  0.27967000  0.23896000  0.00000000
C        C    0.54071000  0.62035000  0.26104000  0.00000000
C        C    0.22033000  0.07964000  0.95929000  0.00000000
C        C    0.92402000  0.20854000  0.11270000  0.00000000
C        C    0.31132000  0.09584000  0.88730000  0.00000000
C        C    0.59584000  0.81132000  0.38730000  0.00000000
C        C    0.09584000  0.88730000  0.31132000  0.00000000
C        C    0.18868000  0.07598000  0.78452000  0.00000000
C        C    0.21548000  0.90416000  0.29146000  0.00000000
C        C    0.40416000  0.71548000  0.79146000  0.00000000
C        C    0.70854000  0.42402000  0.61270000  0.00000000
C        C    0.68868000  0.28452000  0.57598000  0.00000000
C        C    0.29146000  0.21548000  0.90416000  0.00000000
C        C    0.38730000  0.59584000  0.81132000  0.00000000
C        C    0.28452000  0.57598000  0.68868000  0.00000000
C        C    0.78452000  0.18868000  0.07598000  0.00000000
C        C    0.07598000  0.78452000  0.18868000  0.00000000
C        C    0.11270000  0.92402000  0.20854000  0.00000000
C        C    0.79146000  0.40416000  0.71548000  0.00000000
C        C    0.71548000  0.79146000  0.40416000  0.00000000
C        C    0.81132000  0.38730000  0.59584000  0.00000000
C        C    0.42402000  0.61270000  0.70854000  0.00000000
C        C    0.61270000  0.70854000  0.42402000  0.00000000
C        C    0.88730000  0.31132000  0.09584000  0.00000000
C        C    0.90416000  0.29146000  0.21548000  0.00000000
C        C    0.57598000  0.68868000  0.28452000  0.00000000
C        C    0.20854000  0.11270000  0.92402000  0.00000000
C        C    0.92726000  0.16622000  0.13854000  0.00000000
C        C    0.28872000  0.02768000  0.86146000  0.00000000
C        C    0.52768000  0.78872000  0.36146000  0.00000000
C        C    0.02768000  0.86146000  0.28872000  0.00000000
C        C    0.21128000  0.07274000  0.73896000  0.00000000
C        C    0.26104000  0.97232000  0.33378000  0.00000000
C        C    0.47232000  0.76104000  0.83378000  0.00000000
C        C    0.66622000  0.42726000  0.63854000  0.00000000
C        C    0.71128000  0.23896000  0.57274000  0.00000000
C        C    0.33378000  0.26104000  0.97232000  0.00000000
C        C    0.36146000  0.52768000  0.78872000  0.00000000
C        C    0.23896000  0.57274000  0.71128000  0.00000000
C        C    0.73896000  0.21128000  0.07274000  0.00000000
C        C    0.07274000  0.73896000  0.21128000  0.00000000
C        C    0.13854000  0.92726000  0.16622000  0.00000000
C        C    0.83378000  0.47232000  0.76104000  0.00000000
C        C    0.76104000  0.83378000  0.47232000  0.00000000
C        C    0.78872000  0.36146000  0.52768000  0.00000000
C        C    0.42726000  0.63854000  0.66622000  0.00000000
C        C    0.63854000  0.66622000  0.42726000  0.00000000
C        C    0.86146000  0.28872000  0.02768000  0.00000000
C        C    0.97232000  0.33378000  0.26104000  0.00000000
C        C    0.57274000  0.71128000  0.23896000  0.00000000
C        C    0.16622000  0.13854000  0.92726000  0.00000000
C        C    0.96478000  0.13546000  0.13090000  0.00000000
C        C    0.33388000  0.00456000  0.86910000  0.00000000
C        C    0.50456000  0.83388000  0.36910000  0.00000000
C        C    0.00456000  0.86910000  0.33388000  0.00000000
C        C    0.16612000  0.03522000  0.67068000  0.00000000
C        C    0.32932000  0.99544000  0.36454000  0.00000000
C        C    0.49544000  0.82932000  0.86454000  0.00000000
C        C    0.63546000  0.46478000  0.63090000  0.00000000
C        C    0.66612000  0.17068000  0.53522000  0.00000000
C        C    0.36454000  0.32932000  0.99544000  0.00000000
C        C    0.36910000  0.50456000  0.83388000  0.00000000
C        C    0.17068000  0.53522000  0.66612000  0.00000000
C        C    0.67068000  0.16612000  0.03522000  0.00000000
C        C    0.03522000  0.67068000  0.16612000  0.00000000
C        C    0.13090000  0.96478000  0.13546000  0.00000000
C        C    0.86454000  0.49544000  0.82932000  0.00000000
C        C    0.82932000  0.86454000  0.49544000  0.00000000
C        C    0.83388000  0.36910000  0.50456000  0.00000000
C        C    0.46478000  0.63090000  0.63546000  0.00000000
C        C    0.63090000  0.63546000  0.46478000  0.00000000
C        C    0.86910000  0.33388000  0.00456000  0.00000000
C        C    0.99544000  0.36454000  0.32932000  0.00000000
C        C    0.53522000  0.66612000  0.17068000  0.00000000
C        C    0.13546000  0.13090000  0.96478000  0.00000000
C        C    0.99955000  0.14663000  0.09716000  0.00000000
C        C    0.40239000  0.04947000  0.90284000  0.00000000
C        C    0.54947000  0.90239000  0.40284000  0.00000000
C        C    0.04947000  0.90284000  0.40239000  0.00000000
C        C    0.09761000  0.00045000  0.64708000  0.00000000
C        C    0.35292000  0.95053000  0.35337000  0.00000000
C        C    0.45053000  0.85292000  0.85337000  0.00000000
C        C    0.64663000  0.49955000  0.59716000  0.00000000
C        C    0.59761000  0.14708000  0.50045000  0.00000000
C        C    0.35337000  0.35292000  0.95053000  0.00000000
C        C    0.40284000  0.54947000  0.90239000  0.00000000
C        C    0.14708000  0.50045000  0.59761000  0.00000000
C        C    0.64708000  0.09761000  0.00045000  0.00000000
C        C    0.00045000  0.64708000  0.09761000  0.00000000
C        C    0.09716000  0.99955000  0.14663000  0.00000000
C        C    0.85337000  0.45053000  0.85292000  0.00000000
C        C    0.85292000  0.85337000  0.45053000  0.00000000
C        C    0.90239000  0.40284000  0.54947000  0.00000000
C        C    0.49955000  0.59716000  0.64663000  0.00000000
C        C    0.59716000  0.64663000  0.49955000  0.00000000
C        C    0.90284000  0.40239000  0.04947000  0.00000000
C        C    0.95053000  0.35337000  0.35292000  0.00000000
C        C    0.50045000  0.59761000  0.14708000  0.00000000
C        C    0.14663000  0.09716000  0.99955000  0.00000000
C        C    0.99648000  0.18927000  0.07155000  0.00000000
C        C    0.42493000  0.11772000  0.92845000  0.00000000
C        C    0.61772000  0.92493000  0.42845000  0.00000000
C        C    0.11772000  0.92845000  0.42493000  0.00000000
C        C    0.07507000  0.00352000  0.69279000  0.00000000
C        C    0.30721000  0.88228000  0.31073000  0.00000000
C        C    0.38228000  0.80721000  0.81073000  0.00000000
C        C    0.68927000  0.49648000  0.57155000  0.00000000
C        C    0.57507000  0.19279000  0.50352000  0.00000000
C        C    0.31073000  0.30721000  0.88228000  0.00000000
C        C    0.42845000  0.61772000  0.92493000  0.00000000
C        C    0.19279000  0.50352000  0.57507000  0.00000000
C        C    0.69279000  0.07507000  0.00352000  0.00000000
C        C    0.00352000  0.69279000  0.07507000  0.00000000
C        C    0.07155000  0.99648000  0.18927000  0.00000000
C        C    0.81073000  0.38228000  0.80721000  0.00000000
C        C    0.80721000  0.81073000  0.38228000  0.00000000
C        C    0.92493000  0.42845000  0.61772000  0.00000000
C        C    0.49648000  0.57155000  0.68927000  0.00000000
C        C    0.57155000  0.68927000  0.49648000  0.00000000
C        C    0.92845000  0.42493000  0.11772000  0.00000000
C        C    0.88228000  0.31073000  0.30721000  0.00000000
C        C    0.50352000  0.57507000  0.19279000  0.00000000
C        C    0.18927000  0.07155000  0.99648000  0.00000000
Si       Si   0.12500000  0.87500000  0.25000000  0.00000000
Si       Si   0.75000000  0.37500000  0.62500000  0.00000000
Si       Si   0.87500000  0.25000000  0.12500000  0.00000000
Si       Si   0.37500000  0.62500000  0.75000000  0.00000000
Si       Si   0.62500000  0.75000000  0.37500000  0.00000000
Si       Si   0.25000000  0.12500000  0.87500000  0.00000000
H        H    0.95845000  0.25351000  0.06010000  0.00000000
H        H    0.39835000  0.19341000  0.93990000  0.00000000
H        H    0.69341000  0.89835000  0.43990000  0.00000000
H        H    0.19341000  0.93990000  0.39835000  0.00000000
H        H    0.10165000  0.04155000  0.79506000  0.00000000
H        H    0.20494000  0.80659000  0.24649000  0.00000000
H        H    0.30659000  0.70494000  0.74649000  0.00000000
H        H    0.75351000  0.45845000  0.56010000  0.00000000
H        H    0.60165000  0.29506000  0.54155000  0.00000000
H        H    0.24649000  0.20494000  0.80659000  0.00000000
H        H    0.43990000  0.69341000  0.89835000  0.00000000
H        H    0.29506000  0.54155000  0.60165000  0.00000000
H        H    0.79506000  0.10165000  0.04155000  0.00000000
H        H    0.04155000  0.79506000  0.10165000  0.00000000
H        H    0.06010000  0.95845000  0.25351000  0.00000000
H        H    0.74649000  0.30659000  0.70494000  0.00000000
H        H    0.70494000  0.74649000  0.30659000  0.00000000
H        H    0.89835000  0.43990000  0.69341000  0.00000000
H        H    0.45845000  0.56010000  0.75351000  0.00000000
H        H    0.56010000  0.75351000  0.45845000  0.00000000
H        H    0.93990000  0.39835000  0.19341000  0.00000000
H        H    0.80659000  0.24649000  0.20494000  0.00000000
H        H    0.54155000  0.60165000  0.29506000  0.00000000
H        H    0.25351000  0.06010000  0.95845000  0.00000000
H        H    0.90080000  0.15706000  0.16476000  0.00000000
H        H    0.23604000  0.99230000  0.83524000  0.00000000
H        H    0.49230000  0.73604000  0.33524000  0.00000000
H        H    0.99230000  0.83524000  0.23604000  0.00000000
H        H    0.26396000  0.09920000  0.75626000  0.00000000
H        H    0.24374000  0.00770000  0.34294000  0.00000000
H        H    0.50770000  0.74374000  0.84294000  0.00000000
H        H    0.65706000  0.40080000  0.66476000  0.00000000
H        H    0.76396000  0.25626000  0.59920000  0.00000000
H        H    0.34294000  0.24374000  0.00770000  0.00000000
H        H    0.33524000  0.49230000  0.73604000  0.00000000
H        H    0.25626000  0.59920000  0.76396000  0.00000000
H        H    0.75626000  0.26396000  0.09920000  0.00000000
H        H    0.09920000  0.75626000  0.26396000  0.00000000
H        H    0.16476000  0.90080000  0.15706000  0.00000000
H        H    0.84294000  0.50770000  0.74374000  0.00000000
H        H    0.74374000  0.84294000  0.50770000  0.00000000
H        H    0.73604000  0.33524000  0.49230000  0.00000000
H        H    0.40080000  0.66476000  0.65706000  0.00000000
H        H    0.66476000  0.65706000  0.40080000  0.00000000
H        H    0.83524000  0.23604000  0.99230000  0.00000000
H        H    0.00770000  0.34294000  0.24374000  0.00000000
H        H    0.59920000  0.76396000  0.25626000  0.00000000
H        H    0.15706000  0.16476000  0.90080000  0.00000000
H        H    0.96637000  0.10293000  0.15130000  0.00000000
H        H    0.31507000  0.95163000  0.84870000  0.00000000
H        H    0.45163000  0.81507000  0.34870000  0.00000000
H        H    0.95163000  0.84870000  0.31507000  0.00000000
H        H    0.18493000  0.03363000  0.63656000  0.00000000
H        H    0.36344000  0.04837000  0.39707000  0.00000000
H        H    0.54837000  0.86344000  0.89707000  0.00000000
H        H    0.60293000  0.46637000  0.65130000  0.00000000
H        H    0.68493000  0.13656000  0.53363000  0.00000000
H        H    0.39707000  0.36344000  0.04837000  0.00000000
H        H    0.34870000  0.45163000  0.81507000  0.00000000
H        H    0.13656000  0.53363000  0.68493000  0.00000000
H        H    0.63656000  0.18493000  0.03363000  0.00000000
H        H    0.03363000  0.63656000  0.18493000  0.00000000
H        H    0.15130000  0.96637000  0.10293000  0.00000000
H        H    0.89707000  0.54837000  0.86344000  0.00000000
H        H    0.86344000  0.89707000  0.54837000  0.00000000
H        H    0.81507000  0.34870000  0.45163000  0.00000000
H        H    0.46637000  0.65130000  0.60293000  0.00000000
H        H    0.65130000  0.60293000  0.46637000  0.00000000
H        H    0.84870000  0.31507000  0.95163000  0.00000000
H        H    0.04837000  0.39707000  0.36344000  0.00000000
H        H    0.53363000  0.68493000  0.13656000  0.00000000
H        H    0.10293000  0.15130000  0.96637000  0.00000000
H        H    0.02312000  0.19909000  0.04563000  0.00000000
H        H    0.47749000  0.15346000  0.95437000  0.00000000
H        H    0.65346000  0.97749000  0.45437000  0.00000000
H        H    0.15346000  0.95437000  0.47749000  0.00000000
H        H    0.02251000  0.97688000  0.67597000  0.00000000
H        H    0.32403000  0.84654000  0.30091000  0.00000000
H        H    0.34654000  0.82403000  0.80091000  0.00000000
H        H    0.69909000  0.52312000  0.54563000  0.00000000
H        H    0.52251000  0.17597000  0.47688000  0.00000000
H        H    0.30091000  0.32403000  0.84654000  0.00000000
H        H    0.45437000  0.65346000  0.97749000  0.00000000
H        H    0.17597000  0.47688000  0.52251000  0.00000000
H        H    0.67597000  0.02251000  0.97688000  0.00000000
H        H    0.97688000  0.67597000  0.02251000  0.00000000
H        H    0.04563000  0.02312000  0.19909000  0.00000000
H        H    0.80091000  0.34654000  0.82403000  0.00000000
H        H    0.82403000  0.80091000  0.34654000  0.00000000
H        H    0.97749000  0.45437000  0.65346000  0.00000000
H        H    0.52312000  0.54563000  0.69909000  0.00000000
H        H    0.54563000  0.69909000  0.52312000  0.00000000
H        H    0.95437000  0.47749000  0.15346000  0.00000000
H        H    0.84654000  0.30091000  0.32403000  0.00000000
H        H    0.47688000  0.52251000  0.17597000  0.00000000
H        H    0.19909000  0.04563000  0.02312000  0.00000000
