data_COF-102

_cell_length_a  23.53605900
_cell_length_b  23.53605900
_cell_length_c  23.53605900
_cell_angle_alpha  109.47122063
_cell_angle_beta  109.47122063
_cell_angle_gamma  109.47122063


_symmetry_space_group_name_Hall ' P 1'
_symmetry_space_group_name_H-M  'P 1'
_symmetry_Int_Tables_number     1

loop_
_atom_site_label
_atom_site_type_symbol
_atom_site_fract_x
_atom_site_fract_y
_atom_site_fract_z
_atom_site_charge
O        O    0.45009000  0.02552000  0.08157000  0.00000000
O        O    0.52552000  0.95009000  0.58157000  0.00000000
O        O    0.44395000  0.36852000  0.41843000  0.00000000
O        O    0.07543000  0.63148000  0.54991000  0.00000000
O        O    0.63148000  0.54991000  0.07543000  0.00000000
O        O    0.47448000  0.92457000  0.05605000  0.00000000
O        O    0.91843000  0.86852000  0.94395000  0.00000000
O        O    0.86852000  0.94395000  0.91843000  0.00000000
O        O    0.08157000  0.45009000  0.02552000  0.00000000
O        O    0.41843000  0.44395000  0.36852000  0.00000000
O        O    0.02552000  0.08157000  0.45009000  0.00000000
O        O    0.13148000  0.57543000  0.04991000  0.00000000
O        O    0.55605000  0.42457000  0.97448000  0.00000000
O        O    0.58157000  0.52552000  0.95009000  0.00000000
O        O    0.36852000  0.41843000  0.44395000  0.00000000
O        O    0.97448000  0.55605000  0.42457000  0.00000000
O        O    0.54991000  0.07543000  0.63148000  0.00000000
O        O    0.57543000  0.04991000  0.13148000  0.00000000
O        O    0.42457000  0.97448000  0.55605000  0.00000000
O        O    0.95009000  0.58157000  0.52552000  0.00000000
O        O    0.94395000  0.91843000  0.86852000  0.00000000
O        O    0.04991000  0.13148000  0.57543000  0.00000000
O        O    0.05605000  0.47448000  0.92457000  0.00000000
O        O    0.92457000  0.05605000  0.47448000  0.00000000
B        B    0.52459000  0.07317000  0.12208000  0.00000000
B        B    0.57317000  0.02459000  0.62208000  0.00000000
B        B    0.45109000  0.40251000  0.37792000  0.00000000
B        B    0.04858000  0.59749000  0.47541000  0.00000000
B        B    0.59749000  0.47541000  0.04858000  0.00000000
B        B    0.42683000  0.95142000  0.04891000  0.00000000
B        B    0.87792000  0.90251000  0.95109000  0.00000000
B        B    0.90251000  0.95109000  0.87792000  0.00000000
B        B    0.12208000  0.52459000  0.07317000  0.00000000
B        B    0.37792000  0.45109000  0.40251000  0.00000000
B        B    0.07317000  0.12208000  0.52459000  0.00000000
B        B    0.09749000  0.54858000  0.97541000  0.00000000
B        B    0.54891000  0.45142000  0.92683000  0.00000000
B        B    0.62208000  0.57317000  0.02459000  0.00000000
B        B    0.40251000  0.37792000  0.45109000  0.00000000
B        B    0.92683000  0.54891000  0.45142000  0.00000000
B        B    0.47541000  0.04858000  0.59749000  0.00000000
B        B    0.54858000  0.97541000  0.09749000  0.00000000
B        B    0.45142000  0.92683000  0.54891000  0.00000000
B        B    0.02459000  0.62208000  0.57317000  0.00000000
B        B    0.95109000  0.87792000  0.90251000  0.00000000
B        B    0.97541000  0.09749000  0.54858000  0.00000000
B        B    0.04891000  0.42683000  0.95142000  0.00000000
B        B    0.95142000  0.04891000  0.42683000  0.00000000
C        C    0.50613000  0.17732000  0.13861000  0.00000000
C        C    0.67732000  0.00613000  0.63861000  0.00000000
C        C    0.53871000  0.36752000  0.36139000  0.00000000
C        C    0.17119000  0.63248000  0.49387000  0.00000000
C        C    0.63248000  0.49387000  0.17119000  0.00000000
C        C    0.32268000  0.82881000  0.96129000  0.00000000
C        C    0.86139000  0.86752000  0.03871000  0.00000000
C        C    0.86752000  0.03871000  0.86139000  0.00000000
C        C    0.13861000  0.50613000  0.17732000  0.00000000
C        C    0.36139000  0.53871000  0.36752000  0.00000000
C        C    0.17732000  0.13861000  0.50613000  0.00000000
C        C    0.13248000  0.67119000  0.99387000  0.00000000
C        C    0.46129000  0.32881000  0.82268000  0.00000000
C        C    0.63861000  0.67732000  0.00613000  0.00000000
C        C    0.36752000  0.36139000  0.53871000  0.00000000
C        C    0.82268000  0.46129000  0.32881000  0.00000000
C        C    0.49387000  0.17119000  0.63248000  0.00000000
C        C    0.67119000  0.99387000  0.13248000  0.00000000
C        C    0.32881000  0.82268000  0.46129000  0.00000000
C        C    0.00613000  0.63861000  0.67732000  0.00000000
C        C    0.03871000  0.86139000  0.86752000  0.00000000
C        C    0.99387000  0.13248000  0.67119000  0.00000000
C        C    0.96129000  0.32268000  0.82881000  0.00000000
C        C    0.82881000  0.96129000  0.32268000  0.00000000
C        C    0.55139000  0.15264000  0.15663000  0.00000000
C        C    0.65264000  0.05139000  0.65663000  0.00000000
C        C    0.49601000  0.39476000  0.34337000  0.00000000
C        C    0.10125000  0.60524000  0.44861000  0.00000000
C        C    0.60524000  0.44861000  0.10125000  0.00000000
C        C    0.34736000  0.89875000  0.00399000  0.00000000
C        C    0.84337000  0.89476000  0.99601000  0.00000000
C        C    0.89476000  0.99601000  0.84337000  0.00000000
C        C    0.15663000  0.55139000  0.15264000  0.00000000
C        C    0.34337000  0.49601000  0.39476000  0.00000000
C        C    0.15264000  0.15663000  0.55139000  0.00000000
C        C    0.10524000  0.60125000  0.94861000  0.00000000
C        C    0.50399000  0.39875000  0.84736000  0.00000000
C        C    0.65663000  0.65264000  0.05139000  0.00000000
C        C    0.39476000  0.34337000  0.49601000  0.00000000
C        C    0.84736000  0.50399000  0.39875000  0.00000000
C        C    0.44861000  0.10125000  0.60524000  0.00000000
C        C    0.60125000  0.94861000  0.10524000  0.00000000
C        C    0.39875000  0.84736000  0.50399000  0.00000000
C        C    0.05139000  0.65663000  0.65264000  0.00000000
C        C    0.99601000  0.84337000  0.89476000  0.00000000
C        C    0.94861000  0.10524000  0.60125000  0.00000000
C        C    0.00399000  0.34736000  0.89875000  0.00000000
C        C    0.89875000  0.00399000  0.34736000  0.00000000
C        C    0.64532000  0.27071000  0.23701000  0.00000000
C        C    0.77071000  0.14532000  0.73701000  0.00000000
C        C    0.53370000  0.40831000  0.26299000  0.00000000
C        C    0.12539000  0.59169000  0.35468000  0.00000000
C        C    0.59169000  0.35468000  0.12539000  0.00000000
C        C    0.22929000  0.87461000  0.96630000  0.00000000
C        C    0.76299000  0.90831000  0.03370000  0.00000000
C        C    0.90831000  0.03370000  0.76299000  0.00000000
C        C    0.23701000  0.64532000  0.27071000  0.00000000
C        C    0.26299000  0.53370000  0.40831000  0.00000000
C        C    0.27071000  0.23701000  0.64532000  0.00000000
C        C    0.09169000  0.62539000  0.85468000  0.00000000
C        C    0.46630000  0.37461000  0.72929000  0.00000000
C        C    0.73701000  0.77071000  0.14532000  0.00000000
C        C    0.40831000  0.26299000  0.53370000  0.00000000
C        C    0.72929000  0.46630000  0.37461000  0.00000000
C        C    0.35468000  0.12539000  0.59169000  0.00000000
C        C    0.62539000  0.85468000  0.09169000  0.00000000
C        C    0.37461000  0.72929000  0.46630000  0.00000000
C        C    0.14532000  0.73701000  0.77071000  0.00000000
C        C    0.03370000  0.76299000  0.90831000  0.00000000
C        C    0.85468000  0.09169000  0.62539000  0.00000000
C        C    0.96630000  0.22929000  0.87461000  0.00000000
C        C    0.87461000  0.96630000  0.22929000  0.00000000
C        C    0.60110000  0.29674000  0.21704000  0.00000000
C        C    0.79674000  0.10110000  0.71704000  0.00000000
C        C    0.57970000  0.38406000  0.28296000  0.00000000
C        C    0.19564000  0.61594000  0.39890000  0.00000000
C        C    0.61594000  0.39890000  0.19564000  0.00000000
C        C    0.20326000  0.80436000  0.92030000  0.00000000
C        C    0.78296000  0.88406000  0.07970000  0.00000000
C        C    0.88406000  0.07970000  0.78296000  0.00000000
C        C    0.21704000  0.60110000  0.29674000  0.00000000
C        C    0.28296000  0.57970000  0.38406000  0.00000000
C        C    0.29674000  0.21704000  0.60110000  0.00000000
C        C    0.11594000  0.69564000  0.89890000  0.00000000
C        C    0.42030000  0.30436000  0.70326000  0.00000000
C        C    0.71704000  0.79674000  0.10110000  0.00000000
C        C    0.38406000  0.28296000  0.57970000  0.00000000
C        C    0.70326000  0.42030000  0.30436000  0.00000000
C        C    0.39890000  0.19564000  0.61594000  0.00000000
C        C    0.69564000  0.89890000  0.11594000  0.00000000
C        C    0.30436000  0.70326000  0.42030000  0.00000000
C        C    0.10110000  0.71704000  0.79674000  0.00000000
C        C    0.07970000  0.78296000  0.88406000  0.00000000
C        C    0.89890000  0.11594000  0.69564000  0.00000000
C        C    0.92030000  0.20326000  0.80436000  0.00000000
C        C    0.80436000  0.92030000  0.20326000  0.00000000
C        C    0.62098000  0.19980000  0.20622000  0.00000000
C        C    0.69980000  0.12098000  0.70622000  0.00000000
C        C    0.49358000  0.41476000  0.29378000  0.00000000
C        C    0.07882000  0.58524000  0.37902000  0.00000000
C        C    0.58524000  0.37902000  0.07882000  0.00000000
C        C    0.30020000  0.92118000  0.00642000  0.00000000
C        C    0.79378000  0.91476000  0.99358000  0.00000000
C        C    0.91476000  0.99358000  0.79378000  0.00000000
C        C    0.20622000  0.62098000  0.19980000  0.00000000
C        C    0.29378000  0.49358000  0.41476000  0.00000000
C        C    0.19980000  0.20622000  0.62098000  0.00000000
C        C    0.08524000  0.57882000  0.87902000  0.00000000
C        C    0.50642000  0.42118000  0.80020000  0.00000000
C        C    0.70622000  0.69980000  0.12098000  0.00000000
C        C    0.41476000  0.29378000  0.49358000  0.00000000
C        C    0.80020000  0.50642000  0.42118000  0.00000000
C        C    0.37902000  0.07882000  0.58524000  0.00000000
C        C    0.57882000  0.87902000  0.08524000  0.00000000
C        C    0.42118000  0.80020000  0.50642000  0.00000000
C        C    0.12098000  0.70622000  0.69980000  0.00000000
C        C    0.99358000  0.79378000  0.91476000  0.00000000
C        C    0.87902000  0.08524000  0.57882000  0.00000000
C        C    0.00642000  0.30020000  0.92118000  0.00000000
C        C    0.92118000  0.00642000  0.30020000  0.00000000
C        C    0.53057000  0.24822000  0.16847000  0.00000000
C        C    0.74822000  0.03057000  0.66847000  0.00000000
C        C    0.57975000  0.36210000  0.33153000  0.00000000
C        C    0.21765000  0.63790000  0.46943000  0.00000000
C        C    0.63790000  0.46943000  0.21765000  0.00000000
C        C    0.25178000  0.78235000  0.92025000  0.00000000
C        C    0.83153000  0.86210000  0.07975000  0.00000000
C        C    0.86210000  0.07975000  0.83153000  0.00000000
C        C    0.16847000  0.53057000  0.24822000  0.00000000
C        C    0.33153000  0.57975000  0.36210000  0.00000000
C        C    0.24822000  0.16847000  0.53057000  0.00000000
C        C    0.13790000  0.71765000  0.96943000  0.00000000
C        C    0.42025000  0.28235000  0.75178000  0.00000000
C        C    0.66847000  0.74822000  0.03057000  0.00000000
C        C    0.36210000  0.33153000  0.57975000  0.00000000
C        C    0.75178000  0.42025000  0.28235000  0.00000000
C        C    0.46943000  0.21765000  0.63790000  0.00000000
C        C    0.71765000  0.96943000  0.13790000  0.00000000
C        C    0.28235000  0.75178000  0.42025000  0.00000000
C        C    0.03057000  0.66847000  0.74822000  0.00000000
C        C    0.07975000  0.83153000  0.86210000  0.00000000
C        C    0.96943000  0.13790000  0.71765000  0.00000000
C        C    0.92025000  0.25178000  0.78235000  0.00000000
C        C    0.78235000  0.92025000  0.25178000  0.00000000
C        C    0.37500000  0.25000000  0.62500000  0.00000000
C        C    0.12500000  0.75000000  0.87500000  0.00000000
C        C    0.75000000  0.87500000  0.12500000  0.00000000
C        C    0.25000000  0.62500000  0.37500000  0.00000000
C        C    0.87500000  0.12500000  0.75000000  0.00000000
C        C    0.62500000  0.37500000  0.25000000  0.00000000
H        H    0.45188000  0.14200000  0.10092000  0.00000000
H        H    0.64200000  0.95188000  0.60092000  0.00000000
H        H    0.54108000  0.35096000  0.39908000  0.00000000
H        H    0.19012000  0.64904000  0.54812000  0.00000000
H        H    0.64904000  0.54812000  0.19012000  0.00000000
H        H    0.35800000  0.80988000  0.95892000  0.00000000
H        H    0.89908000  0.85096000  0.04108000  0.00000000
H        H    0.85096000  0.04108000  0.89908000  0.00000000
H        H    0.10092000  0.45188000  0.14200000  0.00000000
H        H    0.39908000  0.54108000  0.35096000  0.00000000
H        H    0.14200000  0.10092000  0.45188000  0.00000000
H        H    0.14904000  0.69012000  0.04812000  0.00000000
H        H    0.45892000  0.30988000  0.85800000  0.00000000
H        H    0.60092000  0.64200000  0.95188000  0.00000000
H        H    0.35096000  0.39908000  0.54108000  0.00000000
H        H    0.85800000  0.45892000  0.30988000  0.00000000
H        H    0.54812000  0.19012000  0.64904000  0.00000000
H        H    0.69012000  0.04812000  0.14904000  0.00000000
H        H    0.30988000  0.85800000  0.45892000  0.00000000
H        H    0.95188000  0.60092000  0.64200000  0.00000000
H        H    0.04108000  0.89908000  0.85096000  0.00000000
H        H    0.04812000  0.14904000  0.69012000  0.00000000
H        H    0.95892000  0.35800000  0.80988000  0.00000000
H        H    0.80988000  0.95892000  0.35800000  0.00000000
H        H    0.69868000  0.30408000  0.27710000  0.00000000
H        H    0.80408000  0.19868000  0.77710000  0.00000000
H        H    0.52698000  0.42158000  0.22290000  0.00000000
H        H    0.10540000  0.57842000  0.30132000  0.00000000
H        H    0.57842000  0.30132000  0.10540000  0.00000000
H        H    0.19592000  0.89460000  0.97302000  0.00000000
H        H    0.72290000  0.92158000  0.02698000  0.00000000
H        H    0.92158000  0.02698000  0.72290000  0.00000000
H        H    0.27710000  0.69868000  0.30408000  0.00000000
H        H    0.22290000  0.52698000  0.42158000  0.00000000
H        H    0.30408000  0.27710000  0.69868000  0.00000000
H        H    0.07842000  0.60540000  0.80132000  0.00000000
H        H    0.47302000  0.39460000  0.69592000  0.00000000
H        H    0.77710000  0.80408000  0.19868000  0.00000000
H        H    0.42158000  0.22290000  0.52698000  0.00000000
H        H    0.69592000  0.47302000  0.39460000  0.00000000
H        H    0.30132000  0.10540000  0.57842000  0.00000000
H        H    0.60540000  0.80132000  0.07842000  0.00000000
H        H    0.39460000  0.69592000  0.47302000  0.00000000
H        H    0.19868000  0.77710000  0.80408000  0.00000000
H        H    0.02698000  0.72290000  0.92158000  0.00000000
H        H    0.80132000  0.07842000  0.60540000  0.00000000
H        H    0.97302000  0.19592000  0.89460000  0.00000000
H        H    0.89460000  0.97302000  0.19592000  0.00000000
H        H    0.65674000  0.18201000  0.22227000  0.00000000
H        H    0.68201000  0.15674000  0.72227000  0.00000000
H        H    0.45974000  0.43447000  0.27773000  0.00000000
H        H    0.02527000  0.56553000  0.34326000  0.00000000
H        H    0.56553000  0.34326000  0.02527000  0.00000000
H        H    0.31799000  0.97473000  0.04026000  0.00000000
H        H    0.77773000  0.93447000  0.95974000  0.00000000
H        H    0.93447000  0.95974000  0.77773000  0.00000000
H        H    0.22227000  0.65674000  0.18201000  0.00000000
H        H    0.27773000  0.45974000  0.43447000  0.00000000
H        H    0.18201000  0.22227000  0.65674000  0.00000000
H        H    0.06553000  0.52527000  0.84326000  0.00000000
H        H    0.54026000  0.47473000  0.81799000  0.00000000
H        H    0.72227000  0.68201000  0.15674000  0.00000000
H        H    0.43447000  0.27773000  0.45974000  0.00000000
H        H    0.81799000  0.54026000  0.47473000  0.00000000
H        H    0.34326000  0.02527000  0.56553000  0.00000000
H        H    0.52527000  0.84326000  0.06553000  0.00000000
H        H    0.47473000  0.81799000  0.54026000  0.00000000
H        H    0.15674000  0.72227000  0.68201000  0.00000000
H        H    0.95974000  0.77773000  0.93447000  0.00000000
H        H    0.84326000  0.06553000  0.52527000  0.00000000
H        H    0.04026000  0.31799000  0.97473000  0.00000000
H        H    0.97473000  0.04026000  0.31799000  0.00000000
H        H    0.49429000  0.26563000  0.15312000  0.00000000
H        H    0.76563000  0.99429000  0.65312000  0.00000000
H        H    0.61251000  0.34117000  0.34688000  0.00000000
H        H    0.27134000  0.65883000  0.50571000  0.00000000
H        H    0.65883000  0.50571000  0.27134000  0.00000000
H        H    0.23437000  0.72866000  0.88749000  0.00000000
H        H    0.84688000  0.84117000  0.11251000  0.00000000
H        H    0.84117000  0.11251000  0.84688000  0.00000000
H        H    0.15312000  0.49429000  0.26563000  0.00000000
H        H    0.34688000  0.61251000  0.34117000  0.00000000
H        H    0.26563000  0.15312000  0.49429000  0.00000000
H        H    0.15883000  0.77134000  0.00571000  0.00000000
H        H    0.38749000  0.22866000  0.73437000  0.00000000
H        H    0.65312000  0.76563000  0.99429000  0.00000000
H        H    0.34117000  0.34688000  0.61251000  0.00000000
H        H    0.73437000  0.38749000  0.22866000  0.00000000
H        H    0.50571000  0.27134000  0.65883000  0.00000000
H        H    0.77134000  0.00571000  0.15883000  0.00000000
H        H    0.22866000  0.73437000  0.38749000  0.00000000
H        H    0.99429000  0.65312000  0.76563000  0.00000000
H        H    0.11251000  0.84688000  0.84117000  0.00000000
H        H    0.00571000  0.15883000  0.77134000  0.00000000
H        H    0.88749000  0.23437000  0.72866000  0.00000000
H        H    0.72866000  0.88749000  0.23437000  0.00000000
