data_COF-300

_cell_length_a  20.37825372
_cell_length_b  20.37825372
_cell_length_c  20.37825372
_cell_angle_alpha  92.72032004
_cell_angle_beta  92.72032004
_cell_angle_gamma  154.83386974


_symmetry_space_group_name_Hall ' P 1'
_symmetry_space_group_name_H-M  'P 1'
_symmetry_Int_Tables_number     1

loop_
_atom_site_label
_atom_site_type_symbol
_atom_site_fract_x
_atom_site_fract_y
_atom_site_fract_z
_atom_site_charge
C        C    0.62500000  0.87500000  0.75000000  0.00000000
C        C    0.37500000  0.12500000  0.25000000  0.00000000
C        C    0.05500000  0.48670000  0.49190000  0.00000000
C        C    0.98670000  0.99480000  0.43170000  0.00000000
C        C    0.06310000  0.55500000  0.06830000  0.00000000
C        C    0.49480000  0.56310000  0.00810000  0.00000000
C        C    0.50520000  0.43690000  0.99190000  0.00000000
C        C    0.93690000  0.44500000  0.93170000  0.00000000
C        C    0.94500000  0.51330000  0.50810000  0.00000000
C        C    0.01330000  0.00520000  0.56830000  0.00000000
C        C    0.96410000  0.41650000  0.53500000  0.00000000
C        C    0.91650000  0.88150000  0.45240000  0.00000000
C        C    0.92910000  0.46410000  0.04760000  0.00000000
C        C    0.38150000  0.42910000  0.96500000  0.00000000
C        C    0.61850000  0.57090000  0.03500000  0.00000000
C        C    0.07090000  0.53590000  0.95240000  0.00000000
C        C    0.03590000  0.58350000  0.46500000  0.00000000
C        C    0.08350000  0.11850000  0.54760000  0.00000000
C        C    0.92890000  0.33330000  0.56840000  0.00000000
C        C    0.83330000  0.76490000  0.40440000  0.00000000
C        C    0.86050000  0.42890000  0.09560000  0.00000000
C        C    0.26490000  0.36050000  0.93160000  0.00000000
C        C    0.73510000  0.63950000  0.06840000  0.00000000
C        C    0.13950000  0.57110000  0.90440000  0.00000000
C        C    0.07110000  0.66670000  0.43160000  0.00000000
C        C    0.16670000  0.23510000  0.59560000  0.00000000
C        C    0.90940000  0.43070000  0.54270000  0.00000000
C        C    0.93070000  0.88800000  0.52130000  0.00000000
C        C    0.86670000  0.40940000  0.97870000  0.00000000
C        C    0.38800000  0.36670000  0.95730000  0.00000000
C        C    0.61200000  0.63330000  0.04270000  0.00000000
C        C    0.13330000  0.59060000  0.02130000  0.00000000
C        C    0.09060000  0.56930000  0.45730000  0.00000000
C        C    0.06930000  0.11200000  0.47870000  0.00000000
N        N    0.84240000  0.26510000  0.61070000  0.00000000
N        N    0.76510000  0.65440000  0.42270000  0.00000000
N        N    0.73170000  0.34240000  0.07730000  0.00000000
N        N    0.15440000  0.23170000  0.88930000  0.00000000
N        N    0.84560000  0.76830000  0.11070000  0.00000000
N        N    0.26830000  0.65760000  0.92270000  0.00000000
N        N    0.15760000  0.73490000  0.38930000  0.00000000
N        N    0.23490000  0.34560000  0.57730000  0.00000000
C        C    0.79250000  0.17110000  0.64520000  0.00000000
C        C    0.67110000  0.52590000  0.37860000  0.00000000
C        C    0.64730000  0.29250000  0.12140000  0.00000000
C        C    0.02590000  0.14730000  0.85480000  0.00000000
C        C    0.97410000  0.85270000  0.14520000  0.00000000
C        C    0.35270000  0.70750000  0.87860000  0.00000000
C        C    0.20750000  0.82890000  0.35480000  0.00000000
C        C    0.32890000  0.47410000  0.62140000  0.00000000
C        C    0.73230000  0.13650000  0.69840000  0.00000000
C        C    0.63650000  0.43810000  0.40420000  0.00000000
C        C    0.53390000  0.23230000  0.09580000  0.00000000
C        C    0.93810000  0.03390000  0.80160000  0.00000000
C        C    0.06190000  0.96610000  0.19840000  0.00000000
C        C    0.46610000  0.76770000  0.90420000  0.00000000
C        C    0.26770000  0.86350000  0.30160000  0.00000000
C        C    0.36350000  0.56190000  0.59580000  0.00000000
C        C    0.67810000  0.04210000  0.73240000  0.00000000
C        C    0.54210000  0.30970000  0.36400000  0.00000000
C        C    0.44570000  0.17810000  0.13600000  0.00000000
C        C    0.80970000  0.94570000  0.76760000  0.00000000
C        C    0.19030000  0.05430000  0.23240000  0.00000000
C        C    0.55430000  0.82190000  0.86400000  0.00000000
C        C    0.32190000  0.95790000  0.26760000  0.00000000
C        C    0.45790000  0.69030000  0.63600000  0.00000000
C        C    0.67770000  0.97510000  0.71200000  0.00000000
C        C    0.47510000  0.26310000  0.29740000  0.00000000
C        C    0.46570000  0.17770000  0.20260000  0.00000000
C        C    0.76310000  0.96570000  0.78800000  0.00000000
C        C    0.23690000  0.03430000  0.21200000  0.00000000
C        C    0.53430000  0.82230000  0.79740000  0.00000000
C        C    0.32230000  0.02490000  0.28800000  0.00000000
C        C    0.52490000  0.73690000  0.70260000  0.00000000
C        C    0.74410000  0.01550000  0.66000000  0.00000000
C        C    0.51550000  0.35550000  0.27140000  0.00000000
C        C    0.58410000  0.24410000  0.22860000  0.00000000
C        C    0.85550000  0.08410000  0.84000000  0.00000000
C        C    0.14450000  0.91590000  0.16000000  0.00000000
C        C    0.41590000  0.75590000  0.77140000  0.00000000
C        C    0.25590000  0.98450000  0.34000000  0.00000000
C        C    0.48450000  0.64450000  0.72860000  0.00000000
C        C    0.79860000  0.11010000  0.62630000  0.00000000
C        C    0.61010000  0.48380000  0.31150000  0.00000000
C        C    0.67230000  0.29860000  0.18850000  0.00000000
C        C    0.98380000  0.17230000  0.87370000  0.00000000
C        C    0.01620000  0.82770000  0.12630000  0.00000000
C        C    0.32770000  0.70140000  0.81150000  0.00000000
C        C    0.20140000  0.88990000  0.37370000  0.00000000
C        C    0.38990000  0.51620000  0.68850000  0.00000000
H        H    0.09880000  0.47770000  0.48470000  0.00000000
H        H    0.97770000  0.99300000  0.37890000  0.00000000
H        H    0.11410000  0.59880000  0.12110000  0.00000000
H        H    0.49300000  0.61410000  0.01530000  0.00000000
H        H    0.50700000  0.38590000  0.98470000  0.00000000
H        H    0.88590000  0.40120000  0.87890000  0.00000000
H        H    0.90120000  0.52230000  0.51530000  0.00000000
H        H    0.02230000  0.00700000  0.62110000  0.00000000
H        H    0.97320000  0.32520000  0.56060000  0.00000000
H        H    0.82520000  0.76460000  0.35200000  0.00000000
H        H    0.91260000  0.47320000  0.14800000  0.00000000
H        H    0.26460000  0.41260000  0.93940000  0.00000000
H        H    0.73540000  0.58740000  0.06060000  0.00000000
H        H    0.08740000  0.52680000  0.85200000  0.00000000
H        H    0.02680000  0.67480000  0.43940000  0.00000000
H        H    0.17480000  0.23540000  0.64800000  0.00000000
H        H    0.83890000  0.37820000  0.57550000  0.00000000
H        H    0.87820000  0.80270000  0.53930000  0.00000000
H        H    0.76340000  0.33890000  0.96070000  0.00000000
H        H    0.30270000  0.26340000  0.92450000  0.00000000
H        H    0.69730000  0.73660000  0.07550000  0.00000000
H        H    0.23660000  0.66110000  0.03930000  0.00000000
H        H    0.16110000  0.62180000  0.42450000  0.00000000
H        H    0.12180000  0.19730000  0.46070000  0.00000000
H        H    0.72900000  0.18450000  0.71430000  0.00000000
H        H    0.68450000  0.47020000  0.45550000  0.00000000
H        H    0.51470000  0.22900000  0.04450000  0.00000000
H        H    0.97020000  0.01470000  0.78570000  0.00000000
H        H    0.02980000  0.98530000  0.21430000  0.00000000
H        H    0.48530000  0.77100000  0.95550000  0.00000000
H        H    0.27100000  0.81550000  0.28570000  0.00000000
H        H    0.31550000  0.52980000  0.54450000  0.00000000
H        H    0.63920000  0.02470000  0.77510000  0.00000000
H        H    0.52470000  0.24960000  0.38550000  0.00000000
H        H    0.36410000  0.13920000  0.11450000  0.00000000
H        H    0.74960000  0.86410000  0.72490000  0.00000000
H        H    0.25040000  0.13590000  0.27510000  0.00000000
H        H    0.63590000  0.86080000  0.88550000  0.00000000
H        H    0.36080000  0.97530000  0.22490000  0.00000000
H        H    0.47530000  0.75040000  0.61450000  0.00000000
H        H    0.75220000  0.97180000  0.64480000  0.00000000
H        H    0.47180000  0.32700000  0.21960000  0.00000000
H        H    0.60740000  0.25220000  0.28040000  0.00000000
H        H    0.82700000  0.10740000  0.85520000  0.00000000
H        H    0.17300000  0.89260000  0.14480000  0.00000000
H        H    0.39260000  0.74780000  0.71960000  0.00000000
H        H    0.24780000  0.02820000  0.35520000  0.00000000
H        H    0.52820000  0.67300000  0.78040000  0.00000000
H        H    0.84300000  0.13310000  0.58470000  0.00000000
H        H    0.63310000  0.54840000  0.29010000  0.00000000
H        H    0.75830000  0.34300000  0.20990000  0.00000000
H        H    0.04840000  0.25830000  0.91530000  0.00000000
H        H    0.95160000  0.74170000  0.08470000  0.00000000
H        H    0.24170000  0.65700000  0.79010000  0.00000000
H        H    0.15700000  0.86690000  0.41530000  0.00000000
H        H    0.36690000  0.45160000  0.70990000  0.00000000
