data_Cu-BTC

_cell_length_a  18.62731394
_cell_length_b  18.62731394
_cell_length_c  18.62731394
_cell_angle_alpha  60.00000000
_cell_angle_beta  60.00000000
_cell_angle_gamma  60.00000000


_symmetry_space_group_name_Hall ' P 1'
_symmetry_space_group_name_H-M  'P 1'
_symmetry_Int_Tables_number     1

loop_
_atom_site_label
_atom_site_type_symbol
_atom_site_fract_x
_atom_site_fract_y
_atom_site_fract_z
_atom_site_charge
Cu       Cu   0.57060000  0.00000000  0.42940000  0.00000000
Cu       Cu   0.42940000  0.57060000  1.00000000  0.00000000
Cu       Cu   0.57060000  0.42940000  1.00000000  0.00000000
Cu       Cu   1.00000000  0.42940000  0.00000000  0.00000000
Cu       Cu   0.42940000  0.00000000  0.57060000  0.00000000
Cu       Cu   1.00000000  0.57060000  0.00000000  0.00000000
Cu       Cu   0.00000000  0.42940000  0.57060000  0.00000000
Cu       Cu   0.42940000  0.00000000  1.00000000  0.00000000
Cu       Cu   0.00000000  0.57060000  0.42940000  0.00000000
Cu       Cu   0.57060000  0.00000000  0.00000000  0.00000000
Cu       Cu   1.00000000  0.00000000  0.42940000  0.00000000
Cu       Cu   1.00000000  0.00000000  0.57060000  0.00000000
O        O    0.02130000  0.61190000  0.49250000  0.00000000
O        O    0.50750000  0.97870000  0.38810000  0.00000000
O        O    0.61190000  0.02130000  0.87430000  0.00000000
O        O    0.02130000  0.87430000  0.61190000  0.00000000
O        O    0.02130000  0.49250000  0.87430000  0.00000000
O        O    0.87430000  0.49250000  0.02130000  0.00000000
O        O    0.87430000  0.02130000  0.49250000  0.00000000
O        O    0.12570000  0.97870000  0.50750000  0.00000000
O        O    0.49250000  0.02130000  0.87430000  0.00000000
O        O    0.12570000  0.50750000  0.97870000  0.00000000
O        O    0.02130000  0.61190000  0.87430000  0.00000000
O        O    0.50750000  0.38810000  0.97870000  0.00000000
O        O    0.02130000  0.49250000  0.61190000  0.00000000
O        O    0.49250000  0.87430000  0.02130000  0.00000000
O        O    0.61190000  0.87430000  0.49250000  0.00000000
O        O    0.61190000  0.49250000  0.87430000  0.00000000
O        O    0.49250000  0.87430000  0.61190000  0.00000000
O        O    0.38810000  0.97870000  0.12570000  0.00000000
O        O    0.50750000  0.97870000  0.12570000  0.00000000
O        O    0.97870000  0.38810000  0.12570000  0.00000000
O        O    0.61190000  0.87430000  0.02130000  0.00000000
O        O    0.97870000  0.50750000  0.38810000  0.00000000
O        O    0.38810000  0.50750000  0.97870000  0.00000000
O        O    0.87430000  0.02130000  0.61190000  0.00000000
O        O    0.49250000  0.61190000  0.02130000  0.00000000
O        O    0.87430000  0.61190000  0.49250000  0.00000000
O        O    0.87430000  0.49250000  0.61190000  0.00000000
O        O    0.12570000  0.38810000  0.97870000  0.00000000
O        O    0.97870000  0.12570000  0.50750000  0.00000000
O        O    0.50750000  0.12570000  0.38810000  0.00000000
O        O    0.97870000  0.12570000  0.38810000  0.00000000
O        O    0.02130000  0.87430000  0.49250000  0.00000000
O        O    0.38810000  0.12570000  0.50750000  0.00000000
O        O    0.49250000  0.02130000  0.61190000  0.00000000
O        O    0.38810000  0.50750000  0.12570000  0.00000000
O        O    0.97870000  0.38810000  0.50750000  0.00000000
O        O    0.61190000  0.49250000  0.02130000  0.00000000
O        O    0.49250000  0.61190000  0.87430000  0.00000000
O        O    0.50750000  0.38810000  0.12570000  0.00000000
O        O    0.38810000  0.97870000  0.50750000  0.00000000
O        O    0.12570000  0.97870000  0.38810000  0.00000000
O        O    0.61190000  0.02130000  0.49250000  0.00000000
O        O    0.97870000  0.50750000  0.12570000  0.00000000
O        O    0.12570000  0.38810000  0.50750000  0.00000000
O        O    0.87430000  0.61190000  0.02130000  0.00000000
O        O    0.38810000  0.12570000  0.97870000  0.00000000
O        O    0.50750000  0.12570000  0.97870000  0.00000000
O        O    0.12570000  0.50750000  0.38810000  0.00000000
C        C    0.56870000  0.83770000  0.56870000  0.00000000
C        C    0.02490000  0.56870000  0.83770000  0.00000000
C        C    0.43130000  0.43130000  0.97510000  0.00000000
C        C    0.02490000  0.56870000  0.56870000  0.00000000
C        C    0.02490000  0.83770000  0.56870000  0.00000000
C        C    0.43130000  0.16230000  0.43130000  0.00000000
C        C    0.16230000  0.43130000  0.97510000  0.00000000
C        C    0.56870000  0.83770000  0.02490000  0.00000000
C        C    0.56870000  0.56870000  0.83770000  0.00000000
C        C    0.43130000  0.97510000  0.43130000  0.00000000
C        C    0.43130000  0.97510000  0.16230000  0.00000000
C        C    0.56870000  0.02490000  0.83770000  0.00000000
C        C    0.16230000  0.97510000  0.43130000  0.00000000
C        C    0.56870000  0.56870000  0.02490000  0.00000000
C        C    0.56870000  0.02490000  0.56870000  0.00000000
C        C    0.97510000  0.43130000  0.43130000  0.00000000
C        C    0.43130000  0.43130000  0.16230000  0.00000000
C        C    0.97510000  0.16230000  0.43130000  0.00000000
C        C    0.83770000  0.02490000  0.56870000  0.00000000
C        C    0.43130000  0.16230000  0.97510000  0.00000000
C        C    0.97510000  0.43130000  0.16230000  0.00000000
C        C    0.83770000  0.56870000  0.02490000  0.00000000
C        C    0.16230000  0.43130000  0.43130000  0.00000000
C        C    0.83770000  0.56870000  0.56870000  0.00000000
C        C    0.61300000  0.74300000  0.61300000  0.00000000
C        C    0.03100000  0.61300000  0.74300000  0.00000000
C        C    0.38700000  0.38700000  0.96900000  0.00000000
C        C    0.03100000  0.61300000  0.61300000  0.00000000
C        C    0.03100000  0.74300000  0.61300000  0.00000000
C        C    0.38700000  0.25700000  0.38700000  0.00000000
C        C    0.25700000  0.38700000  0.96900000  0.00000000
C        C    0.61300000  0.74300000  0.03100000  0.00000000
C        C    0.61300000  0.61300000  0.74300000  0.00000000
C        C    0.38700000  0.96900000  0.38700000  0.00000000
C        C    0.38700000  0.96900000  0.25700000  0.00000000
C        C    0.61300000  0.03100000  0.74300000  0.00000000
C        C    0.25700000  0.96900000  0.38700000  0.00000000
C        C    0.61300000  0.61300000  0.03100000  0.00000000
C        C    0.61300000  0.03100000  0.61300000  0.00000000
C        C    0.96900000  0.38700000  0.38700000  0.00000000
C        C    0.38700000  0.38700000  0.25700000  0.00000000
C        C    0.96900000  0.25700000  0.38700000  0.00000000
C        C    0.74300000  0.03100000  0.61300000  0.00000000
C        C    0.38700000  0.25700000  0.96900000  0.00000000
C        C    0.96900000  0.38700000  0.25700000  0.00000000
C        C    0.74300000  0.61300000  0.03100000  0.00000000
C        C    0.25700000  0.38700000  0.38700000  0.00000000
C        C    0.74300000  0.61300000  0.61300000  0.00000000
C        C    0.03160000  0.56960000  0.69940000  0.00000000
C        C    0.43040000  0.96840000  0.30060000  0.00000000
C        C    0.69940000  0.03160000  0.69940000  0.00000000
C        C    0.03160000  0.69940000  0.69940000  0.00000000
C        C    0.69940000  0.56960000  0.69940000  0.00000000
C        C    0.56960000  0.69940000  0.03160000  0.00000000
C        C    0.30060000  0.43040000  0.96840000  0.00000000
C        C    0.03160000  0.69940000  0.56960000  0.00000000
C        C    0.56960000  0.03160000  0.69940000  0.00000000
C        C    0.96840000  0.30060000  0.43040000  0.00000000
C        C    0.69940000  0.56960000  0.03160000  0.00000000
C        C    0.56960000  0.69940000  0.69940000  0.00000000
C        C    0.30060000  0.96840000  0.43040000  0.00000000
C        C    0.30060000  0.96840000  0.30060000  0.00000000
C        C    0.69940000  0.03160000  0.56960000  0.00000000
C        C    0.43040000  0.30060000  0.30060000  0.00000000
C        C    0.96840000  0.43040000  0.30060000  0.00000000
C        C    0.30060000  0.30060000  0.43040000  0.00000000
C        C    0.69940000  0.69940000  0.56960000  0.00000000
C        C    0.69940000  0.69940000  0.03160000  0.00000000
C        C    0.43040000  0.30060000  0.96840000  0.00000000
C        C    0.30060000  0.30060000  0.96840000  0.00000000
C        C    0.96840000  0.30060000  0.30060000  0.00000000
C        C    0.30060000  0.43040000  0.30060000  0.00000000
H        H    0.03240000  0.51160000  0.72800000  0.00000000
H        H    0.48840000  0.96760000  0.27200000  0.00000000
H        H    0.72800000  0.03240000  0.72800000  0.00000000
H        H    0.03240000  0.72800000  0.72800000  0.00000000
H        H    0.72800000  0.51160000  0.72800000  0.00000000
H        H    0.51160000  0.72800000  0.03240000  0.00000000
H        H    0.27200000  0.48840000  0.96760000  0.00000000
H        H    0.03240000  0.72800000  0.51160000  0.00000000
H        H    0.51160000  0.03240000  0.72800000  0.00000000
H        H    0.96760000  0.27200000  0.48840000  0.00000000
H        H    0.72800000  0.51160000  0.03240000  0.00000000
H        H    0.51160000  0.72800000  0.72800000  0.00000000
H        H    0.27200000  0.96760000  0.48840000  0.00000000
H        H    0.27200000  0.96760000  0.27200000  0.00000000
H        H    0.72800000  0.03240000  0.51160000  0.00000000
H        H    0.48840000  0.27200000  0.27200000  0.00000000
H        H    0.96760000  0.48840000  0.27200000  0.00000000
H        H    0.27200000  0.27200000  0.48840000  0.00000000
H        H    0.72800000  0.72800000  0.51160000  0.00000000
H        H    0.72800000  0.72800000  0.03240000  0.00000000
H        H    0.48840000  0.27200000  0.96760000  0.00000000
H        H    0.27200000  0.27200000  0.96760000  0.00000000
H        H    0.96760000  0.27200000  0.27200000  0.00000000
H        H    0.27200000  0.48840000  0.27200000  0.00000000
