data_MAF-X8

_cell_length_a  13.92490000
_cell_length_b  23.63700000
_cell_length_c  23.65300000
_cell_angle_alpha  90.00000000
_cell_angle_beta  90.00000000
_cell_angle_gamma  90.00000000


_symmetry_space_group_name_Hall ' P 1'
_symmetry_space_group_name_H-M  'P 1'
_symmetry_Int_Tables_number     1

loop_
_atom_site_label
_atom_site_type_symbol
_atom_site_fract_x
_atom_site_fract_y
_atom_site_fract_z
_atom_site_charge
C        C    0.75000000  0.85360000  0.00000000  0.00000000
C        C    0.25000000  0.64640000  0.00000000  0.00000000
C        C    0.25000000  0.85360000  0.50000000  0.00000000
C        C    0.75000000  0.35360000  0.00000000  0.00000000
C        C    0.25000000  0.35360000  0.50000000  0.00000000
C        C    0.75000000  0.14640000  0.50000000  0.00000000
C        C    0.75000000  0.64640000  0.50000000  0.00000000
C        C    0.25000000  0.14640000  0.00000000  0.00000000
C        C    0.75000000  0.91590000  0.00000000  0.00000000
C        C    0.25000000  0.58410000  0.00000000  0.00000000
C        C    0.25000000  0.91590000  0.50000000  0.00000000
C        C    0.75000000  0.41590000  0.00000000  0.00000000
C        C    0.25000000  0.41590000  0.50000000  0.00000000
C        C    0.75000000  0.08410000  0.50000000  0.00000000
C        C    0.75000000  0.58410000  0.50000000  0.00000000
C        C    0.25000000  0.08410000  0.00000000  0.00000000
C        C    0.81220000  0.94620000  0.96610000  0.00000000
C        C    0.68780000  0.94620000  0.03390000  0.00000000
C        C    0.18780000  0.44620000  0.53390000  0.00000000
C        C    0.18780000  0.55380000  0.96610000  0.00000000
C        C    0.31220000  0.55380000  0.03390000  0.00000000
C        C    0.31220000  0.05380000  0.96610000  0.00000000
C        C    0.18780000  0.94620000  0.46610000  0.00000000
C        C    0.81220000  0.05380000  0.53390000  0.00000000
C        C    0.68780000  0.44620000  0.96610000  0.00000000
C        C    0.31220000  0.94620000  0.53390000  0.00000000
C        C    0.81220000  0.44620000  0.03390000  0.00000000
C        C    0.81220000  0.55380000  0.46610000  0.00000000
C        C    0.31220000  0.44620000  0.46610000  0.00000000
C        C    0.68780000  0.05380000  0.46610000  0.00000000
C        C    0.68780000  0.55380000  0.53390000  0.00000000
C        C    0.18780000  0.05380000  0.03390000  0.00000000
C        C    0.31310000  0.50650000  0.46730000  0.00000000
C        C    0.18690000  0.50650000  0.53270000  0.00000000
C        C    0.68690000  0.00650000  0.03270000  0.00000000
C        C    0.68690000  0.99350000  0.46730000  0.00000000
C        C    0.81310000  0.99350000  0.53270000  0.00000000
C        C    0.81310000  0.49350000  0.46730000  0.00000000
C        C    0.68690000  0.50650000  0.96730000  0.00000000
C        C    0.31310000  0.49350000  0.03270000  0.00000000
C        C    0.18690000  0.00650000  0.46730000  0.00000000
C        C    0.81310000  0.50650000  0.03270000  0.00000000
C        C    0.31310000  0.00650000  0.53270000  0.00000000
C        C    0.31310000  0.99350000  0.96730000  0.00000000
C        C    0.81310000  0.00650000  0.96730000  0.00000000
C        C    0.18690000  0.49350000  0.96730000  0.00000000
C        C    0.18690000  0.99350000  0.03270000  0.00000000
C        C    0.68690000  0.49350000  0.53270000  0.00000000
C        C    0.75000000  0.96330000  0.50000000  0.00000000
C        C    0.25000000  0.46330000  0.00000000  0.00000000
C        C    0.25000000  0.53670000  0.50000000  0.00000000
C        C    0.75000000  0.03670000  0.00000000  0.00000000
C        C    0.25000000  0.96330000  0.00000000  0.00000000
C        C    0.75000000  0.46330000  0.50000000  0.00000000
C        C    0.75000000  0.53670000  0.00000000  0.00000000
C        C    0.25000000  0.03670000  0.50000000  0.00000000
C        C    0.25000000  0.59780000  0.50000000  0.00000000
C        C    0.75000000  0.09780000  0.00000000  0.00000000
C        C    0.75000000  0.90220000  0.50000000  0.00000000
C        C    0.25000000  0.40220000  0.00000000  0.00000000
C        C    0.75000000  0.59780000  0.00000000  0.00000000
C        C    0.25000000  0.09780000  0.50000000  0.00000000
C        C    0.25000000  0.90220000  0.00000000  0.00000000
C        C    0.75000000  0.40220000  0.50000000  0.00000000
C        C    0.32630000  0.63470000  0.51520000  0.00000000
C        C    0.17370000  0.63470000  0.48480000  0.00000000
C        C    0.67370000  0.13470000  0.98480000  0.00000000
C        C    0.67370000  0.86530000  0.51520000  0.00000000
C        C    0.82630000  0.86530000  0.48480000  0.00000000
C        C    0.82630000  0.36530000  0.51520000  0.00000000
C        C    0.67370000  0.63470000  0.01520000  0.00000000
C        C    0.32630000  0.36530000  0.98480000  0.00000000
C        C    0.17370000  0.13470000  0.51520000  0.00000000
C        C    0.82630000  0.63470000  0.98480000  0.00000000
C        C    0.32630000  0.13470000  0.48480000  0.00000000
C        C    0.32630000  0.86530000  0.01520000  0.00000000
C        C    0.82630000  0.13470000  0.01520000  0.00000000
C        C    0.17370000  0.36530000  0.01520000  0.00000000
C        C    0.17370000  0.86530000  0.98480000  0.00000000
C        C    0.67370000  0.36530000  0.48480000  0.00000000
C        C    0.42450000  0.61840000  0.53490000  0.00000000
C        C    0.07550000  0.61840000  0.46510000  0.00000000
C        C    0.57550000  0.11840000  0.96510000  0.00000000
C        C    0.57550000  0.88160000  0.53490000  0.00000000
C        C    0.92450000  0.88160000  0.46510000  0.00000000
C        C    0.92450000  0.38160000  0.53490000  0.00000000
C        C    0.57550000  0.61840000  0.03490000  0.00000000
C        C    0.42450000  0.38160000  0.96510000  0.00000000
C        C    0.07550000  0.11840000  0.53490000  0.00000000
C        C    0.92450000  0.61840000  0.96510000  0.00000000
C        C    0.42450000  0.11840000  0.46510000  0.00000000
C        C    0.42450000  0.88160000  0.03490000  0.00000000
C        C    0.92450000  0.11840000  0.03490000  0.00000000
C        C    0.07550000  0.38160000  0.03490000  0.00000000
C        C    0.07550000  0.88160000  0.96510000  0.00000000
C        C    0.57550000  0.38160000  0.46510000  0.00000000
C        C    0.00000000  0.75000000  0.06970000  0.00000000
C        C    0.50000000  0.75000000  0.93030000  0.00000000
C        C    0.00000000  0.25000000  0.43030000  0.00000000
C        C    0.50000000  0.25000000  0.06970000  0.00000000
C        C    0.00000000  0.75000000  0.56970000  0.00000000
C        C    0.50000000  0.25000000  0.56970000  0.00000000
C        C    0.50000000  0.75000000  0.43030000  0.00000000
C        C    0.00000000  0.25000000  0.93030000  0.00000000
C        C    0.00000000  0.75000000  0.13280000  0.00000000
C        C    0.50000000  0.75000000  0.86720000  0.00000000
C        C    0.00000000  0.25000000  0.36720000  0.00000000
C        C    0.50000000  0.25000000  0.13280000  0.00000000
C        C    0.00000000  0.75000000  0.63280000  0.00000000
C        C    0.50000000  0.25000000  0.63280000  0.00000000
C        C    0.50000000  0.75000000  0.36720000  0.00000000
C        C    0.00000000  0.25000000  0.86720000  0.00000000
C        C    0.94100000  0.78640000  0.16240000  0.00000000
C        C    0.55900000  0.78640000  0.83760000  0.00000000
C        C    0.05900000  0.28640000  0.33760000  0.00000000
C        C    0.05900000  0.71360000  0.16240000  0.00000000
C        C    0.44100000  0.71360000  0.83760000  0.00000000
C        C    0.44100000  0.21360000  0.16240000  0.00000000
C        C    0.05900000  0.78640000  0.66240000  0.00000000
C        C    0.94100000  0.21360000  0.33760000  0.00000000
C        C    0.55900000  0.28640000  0.16240000  0.00000000
C        C    0.44100000  0.78640000  0.33760000  0.00000000
C        C    0.94100000  0.28640000  0.83760000  0.00000000
C        C    0.94100000  0.71360000  0.66240000  0.00000000
C        C    0.44100000  0.28640000  0.66240000  0.00000000
C        C    0.55900000  0.21360000  0.66240000  0.00000000
C        C    0.55900000  0.71360000  0.33760000  0.00000000
C        C    0.05900000  0.21360000  0.83760000  0.00000000
C        C    0.94130000  0.78690000  0.22100000  0.00000000
C        C    0.55870000  0.78690000  0.77900000  0.00000000
C        C    0.05870000  0.28690000  0.27900000  0.00000000
C        C    0.05870000  0.71310000  0.22100000  0.00000000
C        C    0.44130000  0.71310000  0.77900000  0.00000000
C        C    0.44130000  0.21310000  0.22100000  0.00000000
C        C    0.05870000  0.78690000  0.72100000  0.00000000
C        C    0.94130000  0.21310000  0.27900000  0.00000000
C        C    0.55870000  0.28690000  0.22100000  0.00000000
C        C    0.44130000  0.78690000  0.27900000  0.00000000
C        C    0.94130000  0.28690000  0.77900000  0.00000000
C        C    0.94130000  0.71310000  0.72100000  0.00000000
C        C    0.44130000  0.28690000  0.72100000  0.00000000
C        C    0.55870000  0.21310000  0.72100000  0.00000000
C        C    0.55870000  0.71310000  0.27900000  0.00000000
C        C    0.05870000  0.21310000  0.77900000  0.00000000
C        C    0.00000000  0.25000000  0.24770000  0.00000000
C        C    0.00000000  0.75000000  0.25230000  0.00000000
C        C    0.50000000  0.75000000  0.74770000  0.00000000
C        C    0.00000000  0.75000000  0.75230000  0.00000000
C        C    0.50000000  0.25000000  0.25230000  0.00000000
C        C    0.50000000  0.25000000  0.75230000  0.00000000
C        C    0.50000000  0.75000000  0.24770000  0.00000000
C        C    0.00000000  0.25000000  0.74770000  0.00000000
C        C    0.00000000  0.75000000  0.31450000  0.00000000
C        C    0.50000000  0.75000000  0.68550000  0.00000000
C        C    0.00000000  0.25000000  0.18550000  0.00000000
C        C    0.50000000  0.25000000  0.31450000  0.00000000
C        C    0.00000000  0.75000000  0.81450000  0.00000000
C        C    0.50000000  0.25000000  0.81450000  0.00000000
C        C    0.50000000  0.75000000  0.18550000  0.00000000
C        C    0.00000000  0.25000000  0.68550000  0.00000000
C        C    0.92120000  0.74470000  0.35120000  0.00000000
C        C    0.57880000  0.74470000  0.64880000  0.00000000
C        C    0.07880000  0.24470000  0.14880000  0.00000000
C        C    0.07880000  0.75530000  0.35120000  0.00000000
C        C    0.42120000  0.75530000  0.64880000  0.00000000
C        C    0.42120000  0.25530000  0.35120000  0.00000000
C        C    0.07880000  0.74470000  0.85120000  0.00000000
C        C    0.92120000  0.25530000  0.14880000  0.00000000
C        C    0.57880000  0.24470000  0.35120000  0.00000000
C        C    0.42120000  0.74470000  0.14880000  0.00000000
C        C    0.92120000  0.24470000  0.64880000  0.00000000
C        C    0.92120000  0.75530000  0.85120000  0.00000000
C        C    0.42120000  0.24470000  0.85120000  0.00000000
C        C    0.57880000  0.25530000  0.85120000  0.00000000
C        C    0.57880000  0.75530000  0.14880000  0.00000000
C        C    0.07880000  0.25530000  0.64880000  0.00000000
C        C    0.81570000  0.73980000  0.33740000  0.00000000
C        C    0.68430000  0.73980000  0.66260000  0.00000000
C        C    0.18430000  0.23980000  0.16260000  0.00000000
C        C    0.18430000  0.76020000  0.33740000  0.00000000
C        C    0.31570000  0.76020000  0.66260000  0.00000000
C        C    0.31570000  0.26020000  0.33740000  0.00000000
C        C    0.18430000  0.73980000  0.83740000  0.00000000
C        C    0.81570000  0.26020000  0.16260000  0.00000000
C        C    0.68430000  0.23980000  0.33740000  0.00000000
C        C    0.31570000  0.73980000  0.16260000  0.00000000
C        C    0.81570000  0.23980000  0.66260000  0.00000000
C        C    0.81570000  0.76020000  0.83740000  0.00000000
C        C    0.31570000  0.23980000  0.83740000  0.00000000
C        C    0.68430000  0.26020000  0.83740000  0.00000000
C        C    0.68430000  0.76020000  0.16260000  0.00000000
C        C    0.18430000  0.26020000  0.66260000  0.00000000
H        H    0.90050000  0.81080000  0.14290000  0.00000000
H        H    0.59950000  0.81080000  0.85710000  0.00000000
H        H    0.09950000  0.31080000  0.35710000  0.00000000
H        H    0.09950000  0.68920000  0.14290000  0.00000000
H        H    0.40050000  0.68920000  0.85710000  0.00000000
H        H    0.40050000  0.18920000  0.14290000  0.00000000
H        H    0.09950000  0.81080000  0.64290000  0.00000000
H        H    0.90050000  0.18920000  0.35710000  0.00000000
H        H    0.59950000  0.31080000  0.14290000  0.00000000
H        H    0.40050000  0.81080000  0.35710000  0.00000000
H        H    0.90050000  0.31080000  0.85710000  0.00000000
H        H    0.90050000  0.68920000  0.64290000  0.00000000
H        H    0.40050000  0.31080000  0.64290000  0.00000000
H        H    0.59950000  0.18920000  0.64290000  0.00000000
H        H    0.59950000  0.68920000  0.35710000  0.00000000
H        H    0.09950000  0.18920000  0.85710000  0.00000000
H        H    0.90180000  0.81230000  0.24000000  0.00000000
H        H    0.59820000  0.81230000  0.76000000  0.00000000
H        H    0.09820000  0.31230000  0.26000000  0.00000000
H        H    0.09820000  0.68770000  0.24000000  0.00000000
H        H    0.40180000  0.68770000  0.76000000  0.00000000
H        H    0.40180000  0.18770000  0.24000000  0.00000000
H        H    0.09820000  0.81230000  0.74000000  0.00000000
H        H    0.90180000  0.18770000  0.26000000  0.00000000
H        H    0.59820000  0.31230000  0.24000000  0.00000000
H        H    0.40180000  0.81230000  0.26000000  0.00000000
H        H    0.90180000  0.31230000  0.76000000  0.00000000
H        H    0.90180000  0.68770000  0.74000000  0.00000000
H        H    0.40180000  0.31230000  0.74000000  0.00000000
H        H    0.59820000  0.18770000  0.74000000  0.00000000
H        H    0.59820000  0.68770000  0.26000000  0.00000000
H        H    0.09820000  0.18770000  0.76000000  0.00000000
H        H    0.77940000  0.73780000  0.37190000  0.00000000
H        H    0.72060000  0.73780000  0.62810000  0.00000000
H        H    0.22060000  0.23780000  0.12810000  0.00000000
H        H    0.22060000  0.76220000  0.37190000  0.00000000
H        H    0.27940000  0.76220000  0.62810000  0.00000000
H        H    0.27940000  0.26220000  0.37190000  0.00000000
H        H    0.22060000  0.73780000  0.87190000  0.00000000
H        H    0.77940000  0.26220000  0.12810000  0.00000000
H        H    0.72060000  0.23780000  0.37190000  0.00000000
H        H    0.27940000  0.73780000  0.12810000  0.00000000
H        H    0.77940000  0.23780000  0.62810000  0.00000000
H        H    0.77940000  0.76220000  0.87190000  0.00000000
H        H    0.27940000  0.23780000  0.87190000  0.00000000
H        H    0.72060000  0.26220000  0.87190000  0.00000000
H        H    0.72060000  0.76220000  0.12810000  0.00000000
H        H    0.22060000  0.26220000  0.62810000  0.00000000
H        H    0.80480000  0.70620000  0.31550000  0.00000000
H        H    0.69520000  0.70620000  0.68450000  0.00000000
H        H    0.19520000  0.20620000  0.18450000  0.00000000
H        H    0.19520000  0.79380000  0.31550000  0.00000000
H        H    0.30480000  0.79380000  0.68450000  0.00000000
H        H    0.30480000  0.29380000  0.31550000  0.00000000
H        H    0.19520000  0.70620000  0.81550000  0.00000000
H        H    0.80480000  0.29380000  0.18450000  0.00000000
H        H    0.69520000  0.20620000  0.31550000  0.00000000
H        H    0.30480000  0.70620000  0.18450000  0.00000000
H        H    0.80480000  0.20620000  0.68450000  0.00000000
H        H    0.80480000  0.79380000  0.81550000  0.00000000
H        H    0.30480000  0.20620000  0.81550000  0.00000000
H        H    0.69520000  0.29380000  0.81550000  0.00000000
H        H    0.69520000  0.79380000  0.18450000  0.00000000
H        H    0.19520000  0.29380000  0.68450000  0.00000000
H        H    0.79570000  0.77230000  0.31610000  0.00000000
H        H    0.70430000  0.77230000  0.68390000  0.00000000
H        H    0.20430000  0.27230000  0.18390000  0.00000000
H        H    0.20430000  0.72770000  0.31610000  0.00000000
H        H    0.29570000  0.72770000  0.68390000  0.00000000
H        H    0.29570000  0.22770000  0.31610000  0.00000000
H        H    0.20430000  0.77230000  0.81610000  0.00000000
H        H    0.79570000  0.22770000  0.18390000  0.00000000
H        H    0.70430000  0.27230000  0.31610000  0.00000000
H        H    0.29570000  0.77230000  0.18390000  0.00000000
H        H    0.79570000  0.27230000  0.68390000  0.00000000
H        H    0.79570000  0.72770000  0.81610000  0.00000000
H        H    0.29570000  0.27230000  0.81610000  0.00000000
H        H    0.70430000  0.22770000  0.81610000  0.00000000
H        H    0.70430000  0.72770000  0.18390000  0.00000000
H        H    0.20430000  0.22770000  0.68390000  0.00000000
H        H    0.85400000  0.92700000  0.94210000  0.00000000
H        H    0.64600000  0.92700000  0.05790000  0.00000000
H        H    0.14600000  0.42700000  0.55790000  0.00000000
H        H    0.14600000  0.57300000  0.94210000  0.00000000
H        H    0.35400000  0.57300000  0.05790000  0.00000000
H        H    0.35400000  0.07300000  0.94210000  0.00000000
H        H    0.14600000  0.92700000  0.44210000  0.00000000
H        H    0.85400000  0.07300000  0.55790000  0.00000000
H        H    0.64600000  0.42700000  0.94210000  0.00000000
H        H    0.35400000  0.92700000  0.55790000  0.00000000
H        H    0.85400000  0.42700000  0.05790000  0.00000000
H        H    0.85400000  0.57300000  0.44210000  0.00000000
H        H    0.35400000  0.42700000  0.44210000  0.00000000
H        H    0.64600000  0.07300000  0.44210000  0.00000000
H        H    0.64600000  0.57300000  0.55790000  0.00000000
H        H    0.14600000  0.07300000  0.05790000  0.00000000
H        H    0.35770000  0.52580000  0.44540000  0.00000000
H        H    0.14230000  0.52580000  0.55460000  0.00000000
H        H    0.64230000  0.02580000  0.05460000  0.00000000
H        H    0.64230000  0.97420000  0.44540000  0.00000000
H        H    0.85770000  0.97420000  0.55460000  0.00000000
H        H    0.85770000  0.47420000  0.44540000  0.00000000
H        H    0.64230000  0.52580000  0.94540000  0.00000000
H        H    0.35770000  0.47420000  0.05460000  0.00000000
H        H    0.14230000  0.02580000  0.44540000  0.00000000
H        H    0.85770000  0.52580000  0.05460000  0.00000000
H        H    0.35770000  0.02580000  0.55460000  0.00000000
H        H    0.35770000  0.97420000  0.94540000  0.00000000
H        H    0.85770000  0.02580000  0.94540000  0.00000000
H        H    0.14230000  0.47420000  0.94540000  0.00000000
H        H    0.14230000  0.97420000  0.05460000  0.00000000
H        H    0.64230000  0.47420000  0.55460000  0.00000000
H        H    0.46250000  0.65190000  0.54050000  0.00000000
H        H    0.03750000  0.65190000  0.45950000  0.00000000
H        H    0.53750000  0.15190000  0.95950000  0.00000000
H        H    0.53750000  0.84810000  0.54050000  0.00000000
H        H    0.96250000  0.84810000  0.45950000  0.00000000
H        H    0.96250000  0.34810000  0.54050000  0.00000000
H        H    0.53750000  0.65190000  0.04050000  0.00000000
H        H    0.46250000  0.34810000  0.95950000  0.00000000
H        H    0.03750000  0.15190000  0.54050000  0.00000000
H        H    0.96250000  0.65190000  0.95950000  0.00000000
H        H    0.46250000  0.15190000  0.45950000  0.00000000
H        H    0.46250000  0.84810000  0.04050000  0.00000000
H        H    0.96250000  0.15190000  0.04050000  0.00000000
H        H    0.03750000  0.34810000  0.04050000  0.00000000
H        H    0.03750000  0.84810000  0.95950000  0.00000000
H        H    0.53750000  0.34810000  0.45950000  0.00000000
H        H    0.45450000  0.59480000  0.50700000  0.00000000
H        H    0.04550000  0.59480000  0.49300000  0.00000000
H        H    0.54550000  0.09480000  0.99300000  0.00000000
H        H    0.54550000  0.90520000  0.50700000  0.00000000
H        H    0.95450000  0.90520000  0.49300000  0.00000000
H        H    0.95450000  0.40520000  0.50700000  0.00000000
H        H    0.54550000  0.59480000  0.00700000  0.00000000
H        H    0.45450000  0.40520000  0.99300000  0.00000000
H        H    0.04550000  0.09480000  0.50700000  0.00000000
H        H    0.95450000  0.59480000  0.99300000  0.00000000
H        H    0.45450000  0.09480000  0.49300000  0.00000000
H        H    0.45450000  0.90520000  0.00700000  0.00000000
H        H    0.95450000  0.09480000  0.00700000  0.00000000
H        H    0.04550000  0.40520000  0.00700000  0.00000000
H        H    0.04550000  0.90520000  0.99300000  0.00000000
H        H    0.54550000  0.40520000  0.49300000  0.00000000
H        H    0.41960000  0.59810000  0.56990000  0.00000000
H        H    0.08040000  0.59810000  0.43010000  0.00000000
H        H    0.58040000  0.09810000  0.93010000  0.00000000
H        H    0.58040000  0.90190000  0.56990000  0.00000000
H        H    0.91960000  0.90190000  0.43010000  0.00000000
H        H    0.91960000  0.40190000  0.56990000  0.00000000
H        H    0.58040000  0.59810000  0.06990000  0.00000000
H        H    0.41960000  0.40190000  0.93010000  0.00000000
H        H    0.08040000  0.09810000  0.56990000  0.00000000
H        H    0.91960000  0.59810000  0.93010000  0.00000000
H        H    0.41960000  0.09810000  0.43010000  0.00000000
H        H    0.41960000  0.90190000  0.06990000  0.00000000
H        H    0.91960000  0.09810000  0.06990000  0.00000000
H        H    0.08040000  0.40190000  0.06990000  0.00000000
H        H    0.08040000  0.90190000  0.93010000  0.00000000
H        H    0.58040000  0.40190000  0.43010000  0.00000000
N        N    0.29680000  0.68860000  0.51010000  0.00000000
N        N    0.20320000  0.68860000  0.48990000  0.00000000
N        N    0.70320000  0.18860000  0.98990000  0.00000000
N        N    0.70320000  0.81140000  0.51010000  0.00000000
N        N    0.79680000  0.81140000  0.48990000  0.00000000
N        N    0.79680000  0.31140000  0.51010000  0.00000000
N        N    0.70320000  0.68860000  0.01010000  0.00000000
N        N    0.29680000  0.31140000  0.98990000  0.00000000
N        N    0.20320000  0.18860000  0.51010000  0.00000000
N        N    0.79680000  0.68860000  0.98990000  0.00000000
N        N    0.29680000  0.18860000  0.48990000  0.00000000
N        N    0.29680000  0.81140000  0.01010000  0.00000000
N        N    0.79680000  0.18860000  0.01010000  0.00000000
N        N    0.20320000  0.31140000  0.01010000  0.00000000
N        N    0.20320000  0.81140000  0.98990000  0.00000000
N        N    0.70320000  0.31140000  0.48990000  0.00000000
N        N    0.94990000  0.74770000  0.40510000  0.00000000
N        N    0.55010000  0.74770000  0.59490000  0.00000000
N        N    0.05010000  0.24770000  0.09490000  0.00000000
N        N    0.05010000  0.75230000  0.40510000  0.00000000
N        N    0.44990000  0.75230000  0.59490000  0.00000000
N        N    0.44990000  0.25230000  0.40510000  0.00000000
N        N    0.05010000  0.74770000  0.90510000  0.00000000
N        N    0.94990000  0.25230000  0.09490000  0.00000000
N        N    0.55010000  0.24770000  0.40510000  0.00000000
N        N    0.44990000  0.74770000  0.09490000  0.00000000
N        N    0.94990000  0.24770000  0.59490000  0.00000000
N        N    0.94990000  0.75230000  0.90510000  0.00000000
N        N    0.44990000  0.24770000  0.90510000  0.00000000
N        N    0.55010000  0.25230000  0.90510000  0.00000000
N        N    0.55010000  0.75230000  0.09490000  0.00000000
N        N    0.05010000  0.25230000  0.59490000  0.00000000
O        O    0.80010000  0.82890000  0.96380000  0.00000000
O        O    0.69990000  0.82890000  0.03620000  0.00000000
O        O    0.19990000  0.32890000  0.53620000  0.00000000
O        O    0.19990000  0.67110000  0.96380000  0.00000000
O        O    0.30010000  0.67110000  0.03620000  0.00000000
O        O    0.30010000  0.17110000  0.96380000  0.00000000
O        O    0.19990000  0.82890000  0.46380000  0.00000000
O        O    0.80010000  0.17110000  0.53620000  0.00000000
O        O    0.69990000  0.32890000  0.96380000  0.00000000
O        O    0.30010000  0.82890000  0.53620000  0.00000000
O        O    0.80010000  0.32890000  0.03620000  0.00000000
O        O    0.80010000  0.67110000  0.46380000  0.00000000
O        O    0.30010000  0.32890000  0.46380000  0.00000000
O        O    0.69990000  0.17110000  0.46380000  0.00000000
O        O    0.69990000  0.67110000  0.53620000  0.00000000
O        O    0.19990000  0.17110000  0.03620000  0.00000000
O        O    0.93620000  0.77940000  0.04450000  0.00000000
O        O    0.56380000  0.77940000  0.95550000  0.00000000
O        O    0.06380000  0.27940000  0.45550000  0.00000000
O        O    0.06380000  0.72060000  0.04450000  0.00000000
O        O    0.43620000  0.72060000  0.95550000  0.00000000
O        O    0.43620000  0.22060000  0.04450000  0.00000000
O        O    0.06380000  0.77940000  0.54450000  0.00000000
O        O    0.93620000  0.22060000  0.45550000  0.00000000
O        O    0.56380000  0.27940000  0.04450000  0.00000000
O        O    0.43620000  0.77940000  0.45550000  0.00000000
O        O    0.93620000  0.27940000  0.95550000  0.00000000
O        O    0.93620000  0.72060000  0.54450000  0.00000000
O        O    0.43620000  0.27940000  0.54450000  0.00000000
O        O    0.56380000  0.22060000  0.54450000  0.00000000
O        O    0.56380000  0.72060000  0.45550000  0.00000000
O        O    0.06380000  0.22060000  0.95550000  0.00000000
Zn       Zn   0.87050000  0.75700000  0.97380000  0.00000000
Zn       Zn   0.62950000  0.75700000  0.02620000  0.00000000
Zn       Zn   0.12950000  0.25700000  0.52620000  0.00000000
Zn       Zn   0.12950000  0.74300000  0.97380000  0.00000000
Zn       Zn   0.37050000  0.74300000  0.02620000  0.00000000
Zn       Zn   0.37050000  0.24300000  0.97380000  0.00000000
Zn       Zn   0.12950000  0.75700000  0.47380000  0.00000000
Zn       Zn   0.87050000  0.24300000  0.52620000  0.00000000
Zn       Zn   0.62950000  0.25700000  0.97380000  0.00000000
Zn       Zn   0.37050000  0.75700000  0.52620000  0.00000000
Zn       Zn   0.87050000  0.25700000  0.02620000  0.00000000
Zn       Zn   0.87050000  0.74300000  0.47380000  0.00000000
Zn       Zn   0.37050000  0.25700000  0.47380000  0.00000000
Zn       Zn   0.62950000  0.24300000  0.47380000  0.00000000
Zn       Zn   0.62950000  0.74300000  0.52620000  0.00000000
Zn       Zn   0.12950000  0.24300000  0.02620000  0.00000000
