data_MAF-X8

_cell_length_a  18.11128804
_cell_length_b  18.11128804
_cell_length_c  18.11128804
_cell_angle_alpha  134.78377958
_cell_angle_beta  98.53189945
_cell_angle_gamma  98.46508378


_symmetry_space_group_name_Hall ' P 1'
_symmetry_space_group_name_H-M  'P 1'
_symmetry_Int_Tables_number     1

loop_
_atom_site_label
_atom_site_type_symbol
_atom_site_fract_x
_atom_site_fract_y
_atom_site_fract_z
_atom_site_charge
C        C    0.85360000  0.75000000  0.60360000  0.00000000
C        C    0.64640000  0.25000000  0.89640000  0.00000000
C        C    0.35360000  0.75000000  0.10360000  0.00000000
C        C    0.14640000  0.25000000  0.39640000  0.00000000
C        C    0.91590000  0.75000000  0.66590000  0.00000000
C        C    0.58410000  0.25000000  0.83410000  0.00000000
C        C    0.41590000  0.75000000  0.16590000  0.00000000
C        C    0.08410000  0.25000000  0.33410000  0.00000000
C        C    0.91230000  0.77830000  0.75840000  0.00000000
C        C    0.98010000  0.72170000  0.63400000  0.00000000
C        C    0.51990000  0.15390000  0.74160000  0.00000000
C        C    0.58770000  0.34610000  0.86600000  0.00000000
C        C    0.01990000  0.27830000  0.36600000  0.00000000
C        C    0.41230000  0.65390000  0.13400000  0.00000000
C        C    0.48010000  0.84610000  0.25840000  0.00000000
C        C    0.08770000  0.22170000  0.24160000  0.00000000
C        C    0.97380000  0.78040000  0.81960000  0.00000000
C        C    0.03920000  0.71960000  0.69340000  0.00000000
C        C    0.46080000  0.15420000  0.68040000  0.00000000
C        C    0.52620000  0.34580000  0.80660000  0.00000000
C        C    0.96080000  0.28040000  0.30660000  0.00000000
C        C    0.47380000  0.65420000  0.19340000  0.00000000
C        C    0.53920000  0.84580000  0.31960000  0.00000000
C        C    0.02620000  0.21960000  0.18040000  0.00000000
C        C    0.46330000  0.25000000  0.71330000  0.00000000
C        C    0.03670000  0.75000000  0.78670000  0.00000000
C        C    0.96330000  0.25000000  0.21330000  0.00000000
C        C    0.53670000  0.75000000  0.28670000  0.00000000
C        C    0.09780000  0.75000000  0.84780000  0.00000000
C        C    0.40220000  0.25000000  0.65220000  0.00000000
C        C    0.59780000  0.75000000  0.34780000  0.00000000
C        C    0.90220000  0.25000000  0.15220000  0.00000000
C        C    0.14990000  0.84150000  0.96100000  0.00000000
C        C    0.11950000  0.65850000  0.80840000  0.00000000
C        C    0.38050000  0.18890000  0.53900000  0.00000000
C        C    0.35010000  0.31110000  0.69160000  0.00000000
C        C    0.88050000  0.34150000  0.19160000  0.00000000
C        C    0.64990000  0.68890000  0.30840000  0.00000000
C        C    0.61950000  0.81110000  0.46100000  0.00000000
C        C    0.85010000  0.15850000  0.03900000  0.00000000
C        C    0.15330000  0.95940000  0.04290000  0.00000000
C        C    0.08350000  0.54060000  0.69390000  0.00000000
C        C    0.41650000  0.11040000  0.45710000  0.00000000
C        C    0.34670000  0.38960000  0.80610000  0.00000000
C        C    0.91650000  0.45940000  0.30610000  0.00000000
C        C    0.65330000  0.61040000  0.19390000  0.00000000
C        C    0.58350000  0.88960000  0.54290000  0.00000000
C        C    0.84670000  0.04060000  0.95710000  0.00000000
C        C    0.81970000  0.06970000  0.75000000  0.00000000
C        C    0.68030000  0.43030000  0.25000000  0.00000000
C        C    0.31970000  0.56970000  0.75000000  0.00000000
C        C    0.18030000  0.93030000  0.25000000  0.00000000
C        C    0.88280000  0.13280000  0.75000000  0.00000000
C        C    0.61720000  0.36720000  0.25000000  0.00000000
C        C    0.38280000  0.63280000  0.75000000  0.00000000
C        C    0.11720000  0.86720000  0.25000000  0.00000000
C        C    0.94880000  0.10340000  0.72740000  0.00000000
C        C    0.62400000  0.39660000  0.34540000  0.00000000
C        C    0.87600000  0.22140000  0.77260000  0.00000000
C        C    0.55120000  0.27860000  0.15460000  0.00000000
C        C    0.37600000  0.60340000  0.65460000  0.00000000
C        C    0.44880000  0.72140000  0.84540000  0.00000000
C        C    0.12400000  0.77860000  0.22740000  0.00000000
C        C    0.05120000  0.89660000  0.27260000  0.00000000
C        C    0.00790000  0.16230000  0.72820000  0.00000000
C        C    0.56590000  0.33770000  0.34560000  0.00000000
C        C    0.93410000  0.27970000  0.77180000  0.00000000
C        C    0.49210000  0.22030000  0.15440000  0.00000000
C        C    0.43410000  0.66230000  0.65440000  0.00000000
C        C    0.50790000  0.77970000  0.84560000  0.00000000
C        C    0.06590000  0.72030000  0.22820000  0.00000000
C        C    0.99210000  0.83770000  0.27180000  0.00000000
C        C    0.49770000  0.24770000  0.25000000  0.00000000
C        C    0.00230000  0.25230000  0.75000000  0.00000000
C        C    0.50230000  0.75230000  0.75000000  0.00000000
C        C    0.99770000  0.74770000  0.25000000  0.00000000
C        C    0.06450000  0.31450000  0.75000000  0.00000000
C        C    0.43550000  0.18550000  0.25000000  0.00000000
C        C    0.56450000  0.81450000  0.75000000  0.00000000
C        C    0.93550000  0.68550000  0.25000000  0.00000000
C        C    0.09590000  0.27240000  0.66590000  0.00000000
C        C    0.39350000  0.22760000  0.32350000  0.00000000
C        C    0.10650000  0.43000000  0.83410000  0.00000000
C        C    0.40410000  0.07000000  0.17650000  0.00000000
C        C    0.60650000  0.77240000  0.67650000  0.00000000
C        C    0.59590000  0.93000000  0.82350000  0.00000000
C        C    0.89350000  0.57000000  0.16590000  0.00000000
C        C    0.90410000  0.72760000  0.33410000  0.00000000
C        C    0.07720000  0.15310000  0.55550000  0.00000000
C        C    0.40240000  0.34690000  0.42410000  0.00000000
C        C    0.09760000  0.52170000  0.94450000  0.00000000
C        C    0.42280000  0.97830000  0.07590000  0.00000000
C        C    0.59760000  0.65310000  0.57590000  0.00000000
C        C    0.57720000  0.02170000  0.92410000  0.00000000
C        C    0.90240000  0.47830000  0.05550000  0.00000000
C        C    0.92280000  0.84690000  0.44450000  0.00000000
H        H    0.95370000  0.04340000  0.71130000  0.00000000
H        H    0.66790000  0.45660000  0.41030000  0.00000000
H        H    0.83210000  0.24240000  0.78870000  0.00000000
H        H    0.54630000  0.25760000  0.08970000  0.00000000
H        H    0.33210000  0.54340000  0.58970000  0.00000000
H        H    0.45370000  0.74240000  0.91030000  0.00000000
H        H    0.16790000  0.75760000  0.21130000  0.00000000
H        H    0.04630000  0.95660000  0.28870000  0.00000000
H        H    0.05230000  0.14180000  0.71410000  0.00000000
H        H    0.57230000  0.35820000  0.41050000  0.00000000
H        H    0.92770000  0.33820000  0.78590000  0.00000000
H        H    0.44770000  0.16180000  0.08950000  0.00000000
H        H    0.42770000  0.64180000  0.58950000  0.00000000
H        H    0.55230000  0.83820000  0.91050000  0.00000000
H        H    0.07230000  0.66180000  0.21410000  0.00000000
H        H    0.94770000  0.85820000  0.28590000  0.00000000
H        H    0.10970000  0.15130000  0.51720000  0.00000000
H        H    0.36590000  0.34870000  0.45840000  0.00000000
H        H    0.13410000  0.59250000  0.98280000  0.00000000
H        H    0.39030000  0.90750000  0.04160000  0.00000000
H        H    0.63410000  0.65130000  0.54160000  0.00000000
H        H    0.60970000  0.09250000  0.95840000  0.00000000
H        H    0.86590000  0.40750000  0.01720000  0.00000000
H        H    0.89030000  0.84870000  0.48280000  0.00000000
H        H    0.02170000  0.12030000  0.51100000  0.00000000
H        H    0.39070000  0.37970000  0.40140000  0.00000000
H        H    0.10930000  0.51070000  0.98900000  0.00000000
H        H    0.47830000  0.98930000  0.09860000  0.00000000
H        H    0.60930000  0.62030000  0.59860000  0.00000000
H        H    0.52170000  0.01070000  0.90140000  0.00000000
H        H    0.89070000  0.48930000  0.01100000  0.00000000
H        H    0.97830000  0.87970000  0.48900000  0.00000000
H        H    0.08840000  0.11180000  0.56800000  0.00000000
H        H    0.45620000  0.38820000  0.47660000  0.00000000
H        H    0.04380000  0.52040000  0.93200000  0.00000000
H        H    0.41160000  0.97960000  0.02340000  0.00000000
H        H    0.54380000  0.61180000  0.52340000  0.00000000
H        H    0.58840000  0.02040000  0.97660000  0.00000000
H        H    0.95620000  0.47960000  0.06800000  0.00000000
H        H    0.91160000  0.88820000  0.43200000  0.00000000
H        H    0.86910000  0.79610000  0.78100000  0.00000000
H        H    0.98490000  0.70390000  0.57300000  0.00000000
H        H    0.51510000  0.08810000  0.71900000  0.00000000
H        H    0.63090000  0.41190000  0.92700000  0.00000000
H        H    0.01510000  0.29610000  0.42700000  0.00000000
H        H    0.36910000  0.58810000  0.07300000  0.00000000
H        H    0.48490000  0.91190000  0.28100000  0.00000000
H        H    0.13090000  0.20390000  0.21900000  0.00000000
H        H    0.97120000  0.80310000  0.88350000  0.00000000
H        H    0.08040000  0.69690000  0.66810000  0.00000000
H        H    0.41960000  0.08770000  0.61650000  0.00000000
H        H    0.52880000  0.41230000  0.83190000  0.00000000
H        H    0.91960000  0.30310000  0.33190000  0.00000000
H        H    0.47120000  0.58770000  0.16810000  0.00000000
H        H    0.58040000  0.91230000  0.38350000  0.00000000
H        H    0.02880000  0.19690000  0.11650000  0.00000000
H        H    0.19240000  0.00300000  0.11440000  0.00000000
H        H    0.11140000  0.49700000  0.68940000  0.00000000
H        H    0.38860000  0.07800000  0.38560000  0.00000000
H        H    0.30760000  0.42200000  0.81060000  0.00000000
H        H    0.88860000  0.50300000  0.31060000  0.00000000
H        H    0.69240000  0.57800000  0.18940000  0.00000000
H        H    0.61140000  0.92200000  0.61440000  0.00000000
H        H    0.80760000  0.99700000  0.88560000  0.00000000
H        H    0.10180000  0.96150000  0.04930000  0.00000000
H        H    0.08780000  0.53850000  0.64030000  0.00000000
H        H    0.41220000  0.05250000  0.45070000  0.00000000
H        H    0.39820000  0.44750000  0.85970000  0.00000000
H        H    0.91220000  0.46150000  0.35970000  0.00000000
H        H    0.60180000  0.55250000  0.14030000  0.00000000
H        H    0.58780000  0.94750000  0.54930000  0.00000000
H        H    0.89820000  0.03850000  0.95070000  0.00000000
H        H    0.16800000  0.98950000  0.01770000  0.00000000
H        H    0.02820000  0.51050000  0.67850000  0.00000000
H        H    0.47180000  0.15030000  0.48230000  0.00000000
H        H    0.33200000  0.34970000  0.82150000  0.00000000
H        H    0.97180000  0.48950000  0.32150000  0.00000000
H        H    0.66800000  0.65030000  0.17850000  0.00000000
H        H    0.52820000  0.84970000  0.51770000  0.00000000
H        H    0.83200000  0.01050000  0.98230000  0.00000000
N        N    0.19870000  0.80690000  0.98540000  0.00000000
N        N    0.17850000  0.69310000  0.89180000  0.00000000
N        N    0.32150000  0.21330000  0.51460000  0.00000000
N        N    0.30130000  0.28670000  0.60820000  0.00000000
N        N    0.82150000  0.30690000  0.10820000  0.00000000
N        N    0.69870000  0.71330000  0.39180000  0.00000000
N        N    0.67850000  0.78670000  0.48540000  0.00000000
N        N    0.80130000  0.19310000  0.01460000  0.00000000
N        N    0.15280000  0.35500000  0.69760000  0.00000000
N        N    0.34260000  0.14500000  0.29780000  0.00000000
N        N    0.15740000  0.45520000  0.80240000  0.00000000
N        N    0.34720000  0.04480000  0.20220000  0.00000000
N        N    0.65740000  0.85500000  0.70220000  0.00000000
N        N    0.65280000  0.95520000  0.79780000  0.00000000
N        N    0.84260000  0.54480000  0.19760000  0.00000000
N        N    0.84720000  0.64500000  0.30240000  0.00000000
O        O    0.79270000  0.76390000  0.62900000  0.00000000
O        O    0.86510000  0.73610000  0.52880000  0.00000000
O        O    0.63490000  0.16370000  0.87100000  0.00000000
O        O    0.70730000  0.33630000  0.97120000  0.00000000
O        O    0.13490000  0.26390000  0.47120000  0.00000000
O        O    0.29270000  0.66370000  0.02880000  0.00000000
O        O    0.36510000  0.83630000  0.12900000  0.00000000
O        O    0.20730000  0.23610000  0.37100000  0.00000000
O        O    0.82390000  0.98070000  0.71560000  0.00000000
O        O    0.73490000  0.51930000  0.34320000  0.00000000
O        O    0.76510000  0.10830000  0.78440000  0.00000000
O        O    0.67610000  0.39170000  0.15680000  0.00000000
O        O    0.26510000  0.48070000  0.65680000  0.00000000
O        O    0.32390000  0.60830000  0.84320000  0.00000000
O        O    0.23490000  0.89170000  0.21560000  0.00000000
O        O    0.17610000  0.01930000  0.28440000  0.00000000
Zn       Zn   0.73080000  0.84430000  0.62750000  0.00000000
Zn       Zn   0.78320000  0.65570000  0.38650000  0.00000000
Zn       Zn   0.71680000  0.10330000  0.87250000  0.00000000
Zn       Zn   0.76920000  0.39670000  0.11350000  0.00000000
Zn       Zn   0.21680000  0.34430000  0.61350000  0.00000000
Zn       Zn   0.23080000  0.60330000  0.88650000  0.00000000
Zn       Zn   0.28320000  0.89670000  0.12750000  0.00000000
Zn       Zn   0.26920000  0.15570000  0.37250000  0.00000000
