data_MgMOF-74

_cell_length_a  26.13600000
_cell_length_b  26.13600000
_cell_length_c  6.94200000
_cell_angle_alpha  90.00000000
_cell_angle_beta  90.00000000
_cell_angle_gamma  120.00000000


_symmetry_space_group_name_Hall ' P 1'
_symmetry_space_group_name_H-M  'P 1'
_symmetry_Int_Tables_number     1

loop_
_atom_site_label
_atom_site_type_symbol
_atom_site_fract_x
_atom_site_fract_y
_atom_site_fract_z
_atom_site_charge
Mg       Mg   0.28978333  0.30825667  0.19477667  1.00000000
Mg       Mg   0.64819333  0.62311667  0.13855667  1.00000000
Mg       Mg   0.95645000  0.64159000  0.52811000  1.00000000
Mg       Mg   0.71021667  0.69174333  0.80522333  1.00000000
Mg       Mg   0.98152667  0.28978333  0.80522333  1.00000000
Mg       Mg   0.35841000  0.31486000  0.52811000  1.00000000
Mg       Mg   0.31486000  0.95645000  0.47189000  1.00000000
Mg       Mg   0.62311667  0.97492333  0.86144333  1.00000000
Mg       Mg   0.04355000  0.35841000  0.47189000  1.00000000
Mg       Mg   0.02507667  0.64819333  0.86144333  1.00000000
Mg       Mg   0.35180667  0.37688333  0.86144333  1.00000000
Mg       Mg   0.97492333  0.35180667  0.13855667  1.00000000
Mg       Mg   0.64159000  0.68514000  0.47189000  1.00000000
Mg       Mg   0.69174333  0.98152667  0.19477667  1.00000000
Mg       Mg   0.68514000  0.04355000  0.52811000  1.00000000
Mg       Mg   0.30825667  0.01847333  0.80522333  1.00000000
Mg       Mg   0.37688333  0.02507667  0.13855667  1.00000000
Mg       Mg   0.01847333  0.71021667  0.19477667  1.00000000
O        O    0.00500333  0.63609667  0.30628667  1.00000000
O        O    0.03557333  0.33833667  0.02704667  1.00000000
O        O    0.67167000  0.96943000  0.63962000  1.00000000
O        O    0.99499667  0.36390333  0.69371333  1.00000000
O        O    0.36890667  0.00500333  0.69371333  1.00000000
O        O    0.03057000  0.70224000  0.63962000  1.00000000
O        O    0.70224000  0.67167000  0.36038000  1.00000000
O        O    0.33833667  0.30276333  0.97295333  1.00000000
O        O    0.32833000  0.03057000  0.36038000  1.00000000
O        O    0.69723667  0.03557333  0.97295333  1.00000000
O        O    0.96442667  0.66166333  0.97295333  1.00000000
O        O    0.30276333  0.96442667  0.02704667  1.00000000
O        O    0.96943000  0.29776000  0.36038000  1.00000000
O        O    0.36390333  0.36890667  0.30628667  1.00000000
O        O    0.29776000  0.32833000  0.63962000  1.00000000
O        O    0.63609667  0.63109333  0.69371333  1.00000000
O        O    0.66166333  0.69723667  0.02704667  1.00000000
O        O    0.63109333  0.99499667  0.30628667  1.00000000
O        O    0.03048333  0.59429667  0.05646667  1.00000000
O        O    0.10285333  0.36381667  0.27686667  1.00000000
O        O    0.69715000  0.92763000  0.38980000  1.00000000
O        O    0.96951667  0.40570333  0.94353333  1.00000000
O        O    0.43618667  0.03048333  0.94353333  1.00000000
O        O    0.07237000  0.76952000  0.38980000  1.00000000
O        O    0.76952000  0.69715000  0.61020000  1.00000000
O        O    0.36381667  0.26096333  0.72313333  1.00000000
O        O    0.30285000  0.07237000  0.61020000  1.00000000
O        O    0.73903667  0.10285333  0.72313333  1.00000000
O        O    0.89714667  0.63618333  0.72313333  1.00000000
O        O    0.26096333  0.89714667  0.27686667  1.00000000
O        O    0.92763000  0.23048000  0.61020000  1.00000000
O        O    0.40570333  0.43618667  0.05646667  1.00000000
O        O    0.23048000  0.30285000  0.38980000  1.00000000
O        O    0.59429667  0.56381333  0.94353333  1.00000000
O        O    0.63618333  0.73903667  0.27686667  1.00000000
O        O    0.56381333  0.96951667  0.05646667  1.00000000
O        O    0.64622333  0.92160667  0.99283667  1.00000000
O        O    0.39128333  0.97955667  0.34049667  1.00000000
O        O    0.31289000  0.25494000  0.32617000  1.00000000
O        O    0.35377667  0.07839333  0.00716333  1.00000000
O        O    0.72461667  0.64622333  0.00716333  1.00000000
O        O    0.74506000  0.05795000  0.32617000  1.00000000
O        O    0.05795000  0.31289000  0.67383000  1.00000000
O        O    0.97955667  0.58827333  0.65950333  1.00000000
O        O    0.68711000  0.74506000  0.67383000  1.00000000
O        O    0.41172667  0.39128333  0.65950333  1.00000000
O        O    0.60871667  0.02044333  0.65950333  1.00000000
O        O    0.58827333  0.60871667  0.34049667  1.00000000
O        O    0.25494000  0.94205000  0.67383000  1.00000000
O        O    0.07839333  0.72461667  0.99283667  1.00000000
O        O    0.94205000  0.68711000  0.32617000  1.00000000
O        O    0.92160667  0.27538333  0.00716333  1.00000000
O        O    0.02044333  0.41172667  0.34049667  1.00000000
O        O    0.27538333  0.35377667  0.99283667  1.00000000
C        C    0.01420333  0.59333667  0.23963667  1.00000000
C        C    0.08753333  0.34753667  0.09369667  1.00000000
C        C    0.68087000  0.92667000  0.57297000  1.00000000
C        C    0.98579667  0.40666333  0.76036333  1.00000000
C        C    0.42086667  0.01420333  0.76036333  1.00000000
C        C    0.07333000  0.75420000  0.57297000  1.00000000
C        C    0.75420000  0.68087000  0.42703000  1.00000000
C        C    0.34753667  0.26000333  0.90630333  1.00000000
C        C    0.31913000  0.07333000  0.42703000  1.00000000
C        C    0.73999667  0.08753333  0.90630333  1.00000000
C        C    0.91246667  0.65246333  0.90630333  1.00000000
C        C    0.26000333  0.91246667  0.09369667  1.00000000
C        C    0.92667000  0.24580000  0.42703000  1.00000000
C        C    0.40666333  0.42086667  0.23963667  1.00000000
C        C    0.24580000  0.31913000  0.57297000  1.00000000
C        C    0.59333667  0.57913333  0.76036333  1.00000000
C        C    0.65246333  0.73999667  0.09369667  1.00000000
C        C    0.57913333  0.98579667  0.23963667  1.00000000
C        C    0.00540333  0.54584667  0.37583667  1.00000000
C        C    0.12622333  0.33873667  0.95749667  1.00000000
C        C    0.67207000  0.87918000  0.70917000  1.00000000
C        C    0.99459667  0.45415333  0.62416333  1.00000000
C        C    0.45955667  0.00540333  0.62416333  1.00000000
C        C    0.12082000  0.79289000  0.70917000  1.00000000
C        C    0.79289000  0.67207000  0.29083000  1.00000000
C        C    0.33873667  0.21251333  0.04250333  1.00000000
C        C    0.32793000  0.12082000  0.29083000  1.00000000
C        C    0.78748667  0.12622333  0.04250333  1.00000000
C        C    0.87377667  0.66126333  0.04250333  1.00000000
C        C    0.21251333  0.87377667  0.95749667  1.00000000
C        C    0.87918000  0.20711000  0.29083000  1.00000000
C        C    0.45415333  0.45955667  0.37583667  1.00000000
C        C    0.20711000  0.32793000  0.70917000  1.00000000
C        C    0.54584667  0.54044333  0.62416333  1.00000000
C        C    0.66126333  0.78748667  0.95749667  1.00000000
C        C    0.54044333  0.99459667  0.37583667  1.00000000
C        C    0.65661333  0.87920667  0.91176667  1.00000000
C        C    0.44407333  0.98994667  0.42156667  1.00000000
C        C    0.32328000  0.21254000  0.24510000  1.00000000
C        C    0.34338667  0.12079333  0.08823333  1.00000000
C        C    0.77740667  0.65661333  0.08823333  1.00000000
C        C    0.78746000  0.11074000  0.24510000  1.00000000
C        C    0.11074000  0.32328000  0.75490000  1.00000000
C        C    0.98994667  0.54587333  0.57843333  1.00000000
C        C    0.67672000  0.78746000  0.75490000  1.00000000
C        C    0.45412667  0.44407333  0.57843333  1.00000000
C        C    0.55592667  0.01005333  0.57843333  1.00000000
C        C    0.54587333  0.55592667  0.42156667  1.00000000
C        C    0.21254000  0.88926000  0.75490000  1.00000000
C        C    0.12079333  0.77740667  0.91176667  1.00000000
C        C    0.88926000  0.67672000  0.24510000  1.00000000
C        C    0.87920667  0.22259333  0.08823333  1.00000000
C        C    0.01005333  0.45412667  0.42156667  1.00000000
C        C    0.22259333  0.34338667  0.91176667  1.00000000
C        C    0.65204333  0.83296667  0.03108667  1.00000000
C        C    0.48574333  0.98537667  0.30224667  1.00000000
C        C    0.31871000  0.16630000  0.36442000  1.00000000
C        C    0.34795667  0.16703333  0.96891333  1.00000000
C        C    0.81907667  0.65204333  0.96891333  1.00000000
C        C    0.83370000  0.15241000  0.36442000  1.00000000
C        C    0.15241000  0.31871000  0.63558000  1.00000000
C        C    0.98537667  0.49963333  0.69775333  1.00000000
C        C    0.68129000  0.83370000  0.63558000  1.00000000
C        C    0.50036667  0.48574333  0.69775333  1.00000000
C        C    0.51425667  0.01462333  0.69775333  1.00000000
C        C    0.49963333  0.51425667  0.30224667  1.00000000
C        C    0.16630000  0.84759000  0.63558000  1.00000000
C        C    0.16703333  0.81907667  0.03108667  1.00000000
C        C    0.84759000  0.68129000  0.36442000  1.00000000
C        C    0.83296667  0.18092333  0.96891333  1.00000000
C        C    0.01462333  0.50036667  0.30224667  1.00000000
C        C    0.18092333  0.34795667  0.03108667  1.00000000
H        H    0.64059333  0.83195667  0.18748667  1.00000000
H        H    0.47530333  0.97392667  0.14584667  1.00000000
H        H    0.30726000  0.16529000  0.52082000  1.00000000
H        H    0.35940667  0.16804333  0.81251333  1.00000000
H        H    0.80863667  0.64059333  0.81251333  1.00000000
H        H    0.83471000  0.14197000  0.52082000  1.00000000
H        H    0.14197000  0.30726000  0.47918000  1.00000000
H        H    0.97392667  0.49862333  0.85415333  1.00000000
H        H    0.69274000  0.83471000  0.47918000  1.00000000
H        H    0.50137667  0.47530333  0.85415333  1.00000000
H        H    0.52469667  0.02607333  0.85415333  1.00000000
H        H    0.49862333  0.52469667  0.14584667  1.00000000
H        H    0.16529000  0.85803000  0.47918000  1.00000000
H        H    0.16804333  0.80863667  0.18748667  1.00000000
H        H    0.85803000  0.69274000  0.52082000  1.00000000
H        H    0.83195667  0.19136333  0.81251333  1.00000000
H        H    0.02607333  0.50137667  0.14584667  1.00000000
H        H    0.19136333  0.35940667  0.18748667  1.00000000
