data_MgMOF-74

_cell_length_a  15.26602201
_cell_length_b  15.26602201
_cell_length_c  15.26602201
_cell_angle_alpha  117.74491390
_cell_angle_beta  117.74491390
_cell_angle_gamma  117.74491390


_symmetry_space_group_name_Hall ' P 1'
_symmetry_space_group_name_H-M  'P 1'
_symmetry_Int_Tables_number     1

loop_
_atom_site_label
_atom_site_type_symbol
_atom_site_fract_x
_atom_site_fract_y
_atom_site_fract_z
_atom_site_charge
Mg       Mg   0.11348000  0.78675000  0.51544000  0.00000000
Mg       Mg   0.48456000  0.88652000  0.21325000  0.00000000
Mg       Mg   0.88652000  0.21325000  0.48456000  0.00000000
Mg       Mg   0.78675000  0.51544000  0.11348000  0.00000000
Mg       Mg   0.51544000  0.11348000  0.78675000  0.00000000
Mg       Mg   0.21325000  0.48456000  0.88652000  0.00000000
O        O    0.32981000  0.06262000  0.68871000  0.00000000
O        O    0.31129000  0.67019000  0.93738000  0.00000000
O        O    0.67019000  0.93738000  0.31129000  0.00000000
O        O    0.06262000  0.68871000  0.32981000  0.00000000
O        O    0.68871000  0.32981000  0.06262000  0.00000000
O        O    0.93738000  0.31129000  0.67019000  0.00000000
O        O    0.53783000  0.37972000  0.91305000  0.00000000
O        O    0.08695000  0.46217000  0.62028000  0.00000000
O        O    0.46217000  0.62028000  0.08695000  0.00000000
O        O    0.37972000  0.91305000  0.53783000  0.00000000
O        O    0.91305000  0.53783000  0.37972000  0.00000000
O        O    0.62028000  0.08695000  0.46217000  0.00000000
O        O    0.92877000  0.73178000  0.36094000  0.00000000
O        O    0.63906000  0.07123000  0.26822000  0.00000000
O        O    0.07123000  0.26822000  0.63906000  0.00000000
O        O    0.73178000  0.36094000  0.92877000  0.00000000
O        O    0.36094000  0.92877000  0.73178000  0.00000000
O        O    0.26822000  0.63906000  0.07123000  0.00000000
C        C    0.35370000  0.18123000  0.74616000  0.00000000
C        C    0.25384000  0.64630000  0.81877000  0.00000000
C        C    0.64630000  0.81877000  0.25384000  0.00000000
C        C    0.18123000  0.74616000  0.35370000  0.00000000
C        C    0.74616000  0.35370000  0.18123000  0.00000000
C        C    0.81877000  0.25384000  0.64630000  0.00000000
C        C    0.17001000  0.08372000  0.61876000  0.00000000
C        C    0.38124000  0.82999000  0.91628000  0.00000000
C        C    0.82999000  0.91628000  0.38124000  0.00000000
C        C    0.08372000  0.61876000  0.17001000  0.00000000
C        C    0.61876000  0.17001000  0.08372000  0.00000000
C        C    0.91628000  0.38124000  0.82999000  0.00000000
C        C    0.96744000  0.86564000  0.43162000  0.00000000
C        C    0.56838000  0.03256000  0.13436000  0.00000000
C        C    0.03256000  0.13436000  0.56838000  0.00000000
C        C    0.86564000  0.43162000  0.96744000  0.00000000
C        C    0.43162000  0.96744000  0.86564000  0.00000000
C        C    0.13436000  0.56838000  0.03256000  0.00000000
C        C    0.80188000  0.78799000  0.31687000  0.00000000
C        C    0.68313000  0.19812000  0.21201000  0.00000000
C        C    0.19812000  0.21201000  0.68313000  0.00000000
C        C    0.78799000  0.31687000  0.80188000  0.00000000
C        C    0.31687000  0.80188000  0.78799000  0.00000000
C        C    0.21201000  0.68313000  0.19812000  0.00000000
H        H    0.64447000  0.62115000  0.17192000  0.00000000
H        H    0.82808000  0.35553000  0.37885000  0.00000000
H        H    0.35553000  0.37885000  0.82808000  0.00000000
H        H    0.62115000  0.17192000  0.64447000  0.00000000
H        H    0.17192000  0.64447000  0.62115000  0.00000000
H        H    0.37885000  0.82808000  0.35553000  0.00000000
