data_MIL-53(Cr)ht

_cell_length_a  11.13986172
_cell_length_b  11.13986172
_cell_length_c  11.13986172
_cell_angle_alpha  82.63862291
_cell_angle_beta  144.39355468
_cell_angle_gamma  108.36635655


_symmetry_space_group_name_Hall ' P 1'
_symmetry_space_group_name_H-M  'P 1'
_symmetry_Int_Tables_number     1

loop_
_atom_site_label
_atom_site_type_symbol
_atom_site_fract_x
_atom_site_fract_y
_atom_site_fract_z
_atom_site_charge
Cr       Cr   0.00000000  0.50000000  0.50000000  0.00000000
Cr       Cr   0.50000000  0.50000000  0.00000000  0.00000000
O        O    0.68600000  0.43600000  0.25000000  0.00000000
O        O    0.31400000  0.56400000  0.75000000  0.00000000
O        O    0.99400000  0.49300000  0.66500000  0.00000000
O        O    0.00600000  0.50700000  0.33500000  0.00000000
O        O    0.32800000  0.32900000  0.83500000  0.00000000
O        O    0.99400000  0.32900000  0.50100000  0.00000000
O        O    0.32800000  0.49300000  0.99900000  0.00000000
O        O    0.67200000  0.50700000  0.00100000  0.00000000
O        O    0.67200000  0.67100000  0.16500000  0.00000000
O        O    0.00600000  0.67100000  0.49900000  0.00000000
C        C    0.85300000  0.49900000  0.78800000  0.00000000
C        C    0.14700000  0.50100000  0.21200000  0.00000000
C        C    0.21100000  0.06500000  0.71200000  0.00000000
C        C    0.85300000  0.06500000  0.35400000  0.00000000
C        C    0.21100000  0.49900000  0.14600000  0.00000000
C        C    0.78900000  0.50100000  0.85400000  0.00000000
C        C    0.78900000  0.93500000  0.28800000  0.00000000
C        C    0.14700000  0.93500000  0.64600000  0.00000000
C        C    0.06300000  0.12900000  0.56600000  0.00000000
C        C    0.06300000  0.49700000  0.93400000  0.00000000
C        C    0.93700000  0.50300000  0.06600000  0.00000000
C        C    0.93700000  0.87100000  0.43400000  0.00000000
C        C    0.13200000  0.26900000  0.63700000  0.00000000
C        C    0.13200000  0.49500000  0.86300000  0.00000000
C        C    0.86800000  0.50500000  0.13700000  0.00000000
C        C    0.86800000  0.73100000  0.36300000  0.00000000
H        H    0.61100000  0.36100000  0.25000000  0.00000000
H        H    0.38900000  0.63900000  0.75000000  0.00000000
H        H    0.72900000  0.49800000  0.61100000  0.00000000
H        H    0.27100000  0.50200000  0.38900000  0.00000000
H        H    0.38700000  0.11800000  0.88900000  0.00000000
H        H    0.72900000  0.11800000  0.23100000  0.00000000
H        H    0.38700000  0.49800000  0.26900000  0.00000000
H        H    0.61300000  0.50200000  0.73100000  0.00000000
H        H    0.61300000  0.88200000  0.11100000  0.00000000
H        H    0.27100000  0.88200000  0.76900000  0.00000000
