data_MIL-53(Cr)ht

_cell_length_a  16.73300000
_cell_length_b  13.03800000
_cell_length_c  6.81200000
_cell_angle_alpha  90.00000000
_cell_angle_beta  90.00000000
_cell_angle_gamma  90.00000000


_symmetry_space_group_name_Hall ' P 1'
_symmetry_space_group_name_H-M  'P 1'
_symmetry_Int_Tables_number     1

loop_
_atom_site_label
_atom_site_type_symbol
_atom_site_fract_x
_atom_site_fract_y
_atom_site_fract_z
_atom_site_charge
Cr       Cr   0.75000000  0.25000000  0.25000000  1.00000000
Cr       Cr   0.25000000  0.75000000  0.25000000  1.00000000
Cr       Cr   0.25000000  0.75000000  0.75000000  1.00000000
Cr       Cr   0.75000000  0.25000000  0.75000000  1.00000000
O        O    0.75000000  0.31400000  0.00000000  1.00000000
O        O    0.25000000  0.81400000  0.50000000  1.00000000
O        O    0.25000000  0.68600000  0.00000000  1.00000000
O        O    0.75000000  0.18600000  0.50000000  1.00000000
O        O    0.83200000  0.33900000  0.33300000  1.00000000
O        O    0.66800000  0.16100000  0.16700000  1.00000000
O        O    0.66800000  0.33900000  0.66700000  1.00000000
O        O    0.16800000  0.83900000  0.83300000  1.00000000
O        O    0.33200000  0.83900000  0.16700000  1.00000000
O        O    0.16800000  0.66100000  0.33300000  1.00000000
O        O    0.16800000  0.83900000  0.16700000  1.00000000
O        O    0.83200000  0.33900000  0.66700000  1.00000000
O        O    0.66800000  0.16100000  0.83300000  1.00000000
O        O    0.33200000  0.66100000  0.33300000  1.00000000
O        O    0.33200000  0.66100000  0.66700000  1.00000000
O        O    0.33200000  0.83900000  0.83300000  1.00000000
O        O    0.83200000  0.16100000  0.16700000  1.00000000
O        O    0.66800000  0.33900000  0.33300000  1.00000000
O        O    0.83200000  0.16100000  0.83300000  1.00000000
O        O    0.16800000  0.66100000  0.66700000  1.00000000
C        C    0.96700000  0.46800000  0.32100000  1.00000000
C        C    0.53300000  0.03200000  0.17900000  1.00000000
C        C    0.53300000  0.46800000  0.67900000  1.00000000
C        C    0.03300000  0.96800000  0.82100000  1.00000000
C        C    0.46700000  0.96800000  0.17900000  1.00000000
C        C    0.03300000  0.53200000  0.32100000  1.00000000
C        C    0.03300000  0.96800000  0.17900000  1.00000000
C        C    0.96700000  0.46800000  0.67900000  1.00000000
C        C    0.53300000  0.03200000  0.82100000  1.00000000
C        C    0.46700000  0.53200000  0.32100000  1.00000000
C        C    0.46700000  0.53200000  0.67900000  1.00000000
C        C    0.46700000  0.96800000  0.82100000  1.00000000
C        C    0.96700000  0.03200000  0.17900000  1.00000000
C        C    0.53300000  0.46800000  0.32100000  1.00000000
C        C    0.96700000  0.03200000  0.82100000  1.00000000
C        C    0.03300000  0.53200000  0.67900000  1.00000000
C        C    0.06600000  0.93700000  0.00000000  1.00000000
C        C    0.93400000  0.43700000  0.50000000  1.00000000
C        C    0.56600000  0.06300000  0.00000000  1.00000000
C        C    0.43400000  0.56300000  0.50000000  1.00000000
C        C    0.43400000  0.93700000  0.00000000  1.00000000
C        C    0.56600000  0.43700000  0.50000000  1.00000000
C        C    0.93400000  0.06300000  0.00000000  1.00000000
C        C    0.06600000  0.56300000  0.50000000  1.00000000
C        C    0.13700000  0.86800000  0.00000000  1.00000000
C        C    0.86300000  0.36800000  0.50000000  1.00000000
C        C    0.63700000  0.13200000  0.00000000  1.00000000
C        C    0.36300000  0.63200000  0.50000000  1.00000000
C        C    0.36300000  0.86800000  0.00000000  1.00000000
C        C    0.63700000  0.36800000  0.50000000  1.00000000
C        C    0.86300000  0.13200000  0.00000000  1.00000000
C        C    0.13700000  0.63200000  0.50000000  1.00000000
H        H    0.75000000  0.38900000  0.00000000  1.00000000
H        H    0.25000000  0.88900000  0.50000000  1.00000000
H        H    0.25000000  0.61100000  0.00000000  1.00000000
H        H    0.75000000  0.11100000  0.50000000  1.00000000
H        H    0.94000000  0.44200000  0.17100000  1.00000000
H        H    0.56000000  0.05800000  0.32900000  1.00000000
H        H    0.56000000  0.44200000  0.82900000  1.00000000
H        H    0.06000000  0.94200000  0.67100000  1.00000000
H        H    0.44000000  0.94200000  0.32900000  1.00000000
H        H    0.06000000  0.55800000  0.17100000  1.00000000
H        H    0.06000000  0.94200000  0.32900000  1.00000000
H        H    0.94000000  0.44200000  0.82900000  1.00000000
H        H    0.56000000  0.05800000  0.67100000  1.00000000
H        H    0.44000000  0.55800000  0.17100000  1.00000000
H        H    0.44000000  0.55800000  0.82900000  1.00000000
H        H    0.44000000  0.94200000  0.67100000  1.00000000
H        H    0.94000000  0.05800000  0.32900000  1.00000000
H        H    0.56000000  0.44200000  0.17100000  1.00000000
H        H    0.94000000  0.05800000  0.67100000  1.00000000
H        H    0.06000000  0.55800000  0.82900000  1.00000000
