data_MIL-47

_cell_length_a  6.81790000
_cell_length_b  16.14300000
_cell_length_c  13.93900000
_cell_angle_alpha  90.00000000
_cell_angle_beta  90.00000000
_cell_angle_gamma  90.00000000


_symmetry_space_group_name_Hall ' P 1'
_symmetry_space_group_name_H-M  'P 1'
_symmetry_Int_Tables_number     1

loop_
_atom_site_label
_atom_site_type_symbol
_atom_site_fract_x
_atom_site_fract_y
_atom_site_fract_z
_atom_site_charge
V        V    0.20020000  0.25000000  0.73916000  1.68000000
V        V    0.70020000  0.25000000  0.76084000  1.68000000
V        V    0.79980000  0.75000000  0.26084000  1.68000000
V        V    0.29980000  0.75000000  0.23916000  1.68000000
O        O    0.97510000  0.25000000  0.69160000 -0.60000000
O        O    0.47510000  0.25000000  0.80840000 -0.60000000
O        O    0.02490000  0.75000000  0.30840000 -0.60000000
O        O    0.52490000  0.75000000  0.19160000 -0.60000000
O        O    0.81180000  0.33680000  0.84450000 -0.52000000
O        O    0.31180000  0.16320000  0.65550000 -0.52000000
O        O    0.18820000  0.66320000  0.15550000 -0.52000000
O        O    0.31180000  0.33680000  0.65550000 -0.52000000
O        O    0.81180000  0.16320000  0.84450000 -0.52000000
O        O    0.68820000  0.66320000  0.34450000 -0.52000000
O        O    0.68820000  0.83680000  0.34450000 -0.52000000
O        O    0.18820000  0.83680000  0.15550000 -0.52000000
O        O    0.64150000  0.33740000  0.66650000 -0.52000000
O        O    0.14150000  0.16260000  0.83350000 -0.52000000
O        O    0.35850000  0.66260000  0.33350000 -0.52000000
O        O    0.14150000  0.33740000  0.83350000 -0.52000000
O        O    0.64150000  0.16260000  0.66650000 -0.52000000
O        O    0.85850000  0.66260000  0.16650000 -0.52000000
O        O    0.85850000  0.83740000  0.16650000 -0.52000000
O        O    0.35850000  0.83740000  0.33350000 -0.52000000
C        C    0.82250000  0.46710000  0.97390000 -0.15000000
C        C    0.32250000  0.03290000  0.52610000 -0.15000000
C        C    0.17750000  0.53290000  0.02610000 -0.15000000
C        C    0.32250000  0.46710000  0.52610000 -0.15000000
C        C    0.82250000  0.03290000  0.97390000 -0.15000000
C        C    0.67750000  0.53290000  0.47390000 -0.15000000
C        C    0.67750000  0.96710000  0.47390000 -0.15000000
C        C    0.17750000  0.96710000  0.02610000 -0.15000000
H        H    0.70150000  0.44460000  0.95750000  0.12000000
H        H    0.20150000  0.05540000  0.54250000  0.12000000
H        H    0.29850000  0.55540000  0.04250000  0.12000000
H        H    0.20150000  0.44460000  0.54250000  0.12000000
H        H    0.70150000  0.05540000  0.95750000  0.12000000
H        H    0.79850000  0.55540000  0.45750000  0.12000000
H        H    0.79850000  0.94460000  0.45750000  0.12000000
H        H    0.29850000  0.94460000  0.04250000  0.12000000
C        C    0.16750000  0.46770000  0.96310000 -0.15000000
C        C    0.66750000  0.03230000  0.53690000 -0.15000000
C        C    0.83250000  0.53230000  0.03690000 -0.15000000
C        C    0.66750000  0.46770000  0.53690000 -0.15000000
C        C    0.16750000  0.03230000  0.96310000 -0.15000000
C        C    0.33250000  0.53230000  0.46310000 -0.15000000
C        C    0.33250000  0.96770000  0.46310000 -0.15000000
C        C    0.83250000  0.96770000  0.03690000 -0.15000000
H        H    0.28300000  0.44520000  0.93890000  0.12000000
H        H    0.78300000  0.05480000  0.56110000  0.12000000
H        H    0.71700000  0.55480000  0.06110000  0.12000000
H        H    0.78300000  0.44520000  0.56110000  0.12000000
H        H    0.28300000  0.05480000  0.93890000  0.12000000
H        H    0.21700000  0.55480000  0.43890000  0.12000000
H        H    0.21700000  0.94520000  0.43890000  0.12000000
H        H    0.71700000  0.94520000  0.06110000  0.12000000
C        C    0.99110000  0.43510000  0.93500000  0.00000000
C        C    0.49110000  0.06490000  0.56500000  0.00000000
C        C    0.00890000  0.56490000  0.06500000  0.00000000
C        C    0.49110000  0.43510000  0.56500000  0.00000000
C        C    0.99110000  0.06490000  0.93500000  0.00000000
C        C    0.50890000  0.56490000  0.43500000  0.00000000
C        C    0.50890000  0.93510000  0.43500000  0.00000000
C        C    0.00890000  0.93510000  0.06500000  0.00000000
C        C    0.97810000  0.36340000  0.86670000  0.56000000
C        C    0.47810000  0.13660000  0.63330000  0.56000000
C        C    0.02190000  0.63660000  0.13330000  0.56000000
C        C    0.47810000  0.36340000  0.63330000  0.56000000
C        C    0.97810000  0.13660000  0.86670000  0.56000000
C        C    0.52190000  0.63660000  0.36670000  0.56000000
C        C    0.52190000  0.86340000  0.36670000  0.56000000
C        C    0.02190000  0.86340000  0.13330000  0.56000000
