data_MIL-53(Cr)lt

_cell_length_a  10.59606090
_cell_length_b  10.59606090
_cell_length_c  6.78200000
_cell_angle_alpha  76.18154429
_cell_angle_beta  76.18154429
_cell_angle_gamma  43.47730581


_symmetry_space_group_name_Hall ' P 1'
_symmetry_space_group_name_H-M  'P 1'
_symmetry_Int_Tables_number     1

loop_
_atom_site_label
_atom_site_type_symbol
_atom_site_fract_x
_atom_site_fract_y
_atom_site_fract_z
_atom_site_charge
Cr       Cr   0.00000000  0.00000000  0.00000000  0.00000000
Cr       Cr   1.00000000  1.00000000  0.50000000  0.00000000
O        O    0.11300000  0.88700000  0.75000000  0.00000000
O        O    0.88700000  0.11300000  0.25000000  0.00000000
H        H    0.25000000  0.75000000  0.75000000  0.00000000
H        H    0.75000000  0.25000000  0.25000000  0.00000000
O        O    0.23400000  0.90200000  0.05500000  0.00000000
O        O    0.76600000  0.09800000  0.94500000  0.00000000
O        O    0.90200000  0.23400000  0.55500000  0.00000000
O        O    0.09800000  0.76600000  0.44500000  0.00000000
O        O    0.22800000  0.94600000  0.34800000  0.00000000
O        O    0.77200000  0.05400000  0.65200000  0.00000000
O        O    0.94600000  0.22800000  0.84800000  0.00000000
O        O    0.05400000  0.77200000  0.15200000  0.00000000
C        C    0.30100000  0.92100000  0.17000000  0.00000000
C        C    0.69900000  0.07900000  0.83000000  0.00000000
C        C    0.92100000  0.30100000  0.67000000  0.00000000
C        C    0.07900000  0.69900000  0.33000000  0.00000000
C        C    0.90200000  0.49400000  0.38200000  0.00000000
C        C    0.09800000  0.50600000  0.61800000  0.00000000
C        C    0.49400000  0.90200000  0.88200000  0.00000000
C        C    0.50600000  0.09800000  0.11800000  0.00000000
C        C    0.95100000  0.59100000  0.29600000  0.00000000
C        C    0.04900000  0.40900000  0.70400000  0.00000000
C        C    0.59100000  0.95100000  0.79600000  0.00000000
C        C    0.40900000  0.04900000  0.20400000  0.00000000
C        C    0.97400000  0.39400000  0.57900000  0.00000000
C        C    0.02600000  0.60600000  0.42100000  0.00000000
C        C    0.39400000  0.97400000  0.07900000  0.00000000
C        C    0.60600000  0.02600000  0.92100000  0.00000000
H        H    0.81616000  0.50086000  0.29701000  0.00000000
H        H    0.18384000  0.49914000  0.70299000  0.00000000
H        H    0.50086000  0.81616000  0.79701000  0.00000000
H        H    0.49914000  0.18384000  0.20299000  0.00000000
H        H    0.92858000  0.65328000  0.13037000  0.00000000
H        H    0.07142000  0.34672000  0.86963000  0.00000000
H        H    0.65328000  0.92858000  0.63037000  0.00000000
H        H    0.34672000  0.07142000  0.36963000  0.00000000
