data_MIL-53(Cr)lt

_cell_length_a  19.68500000
_cell_length_b  7.84900000
_cell_length_c  6.78200000
_cell_angle_alpha  90.00000000
_cell_angle_beta  104.90000000
_cell_angle_gamma  90.00000000


_symmetry_space_group_name_Hall ' P 1'
_symmetry_space_group_name_H-M  'P 1'
_symmetry_Int_Tables_number     1

loop_
_atom_site_label
_atom_site_type_symbol
_atom_site_fract_x
_atom_site_fract_y
_atom_site_fract_z
_atom_site_charge
Cr       Cr   0.00000000  0.00000000  0.00000000  1.00000000
Cr       Cr   0.50000000  0.50000000  0.50000000  1.00000000
Cr       Cr   0.00000000  0.00000000  0.50000000  1.00000000
Cr       Cr   0.50000000  0.50000000  0.00000000  1.00000000
O        O    0.00000000  0.11300000  0.25000000  1.00000000
O        O    0.50000000  0.61300000  0.25000000  1.00000000
O        O    0.00000000  0.88700000  0.75000000  1.00000000
O        O    0.50000000  0.38700000  0.75000000  1.00000000
H        H    0.00000000  0.25000000  0.25000000  1.00000000
H        H    0.50000000  0.75000000  0.25000000  1.00000000
H        H    0.00000000  0.75000000  0.75000000  1.00000000
H        H    0.50000000  0.25000000  0.75000000  1.00000000
O        O    0.06800000  0.16600000  0.94500000  1.00000000
O        O    0.93200000  0.83400000  0.05500000  1.00000000
O        O    0.06800000  0.83400000  0.44500000  1.00000000
O        O    0.43200000  0.66600000  0.55500000  1.00000000
O        O    0.43200000  0.33400000  0.05500000  1.00000000
O        O    0.56800000  0.33400000  0.44500000  1.00000000
O        O    0.93200000  0.16600000  0.55500000  1.00000000
O        O    0.56800000  0.66600000  0.94500000  1.00000000
O        O    0.08700000  0.14100000  0.65200000  1.00000000
O        O    0.91300000  0.85900000  0.34800000  1.00000000
O        O    0.08700000  0.85900000  0.15200000  1.00000000
O        O    0.41300000  0.64100000  0.84800000  1.00000000
O        O    0.41300000  0.35900000  0.34800000  1.00000000
O        O    0.58700000  0.35900000  0.15200000  1.00000000
O        O    0.91300000  0.14100000  0.84800000  1.00000000
O        O    0.58700000  0.64100000  0.65200000  1.00000000
C        C    0.11100000  0.19000000  0.83000000  1.00000000
C        C    0.88900000  0.81000000  0.17000000  1.00000000
C        C    0.11100000  0.81000000  0.33000000  1.00000000
C        C    0.38900000  0.69000000  0.67000000  1.00000000
C        C    0.38900000  0.31000000  0.17000000  1.00000000
C        C    0.61100000  0.31000000  0.33000000  1.00000000
C        C    0.88900000  0.19000000  0.67000000  1.00000000
C        C    0.61100000  0.69000000  0.83000000  1.00000000
C        C    0.19800000  0.70400000  0.61800000  1.00000000
C        C    0.80200000  0.29600000  0.38200000  1.00000000
C        C    0.19800000  0.29600000  0.11800000  1.00000000
C        C    0.30200000  0.20400000  0.88200000  1.00000000
C        C    0.30200000  0.79600000  0.38200000  1.00000000
C        C    0.69800000  0.79600000  0.11800000  1.00000000
C        C    0.80200000  0.70400000  0.88200000  1.00000000
C        C    0.69800000  0.20400000  0.61800000  1.00000000
C        C    0.27100000  0.68000000  0.70400000  1.00000000
C        C    0.72900000  0.32000000  0.29600000  1.00000000
C        C    0.27100000  0.32000000  0.20400000  1.00000000
C        C    0.22900000  0.18000000  0.79600000  1.00000000
C        C    0.22900000  0.82000000  0.29600000  1.00000000
C        C    0.77100000  0.82000000  0.20400000  1.00000000
C        C    0.72900000  0.68000000  0.79600000  1.00000000
C        C    0.77100000  0.18000000  0.70400000  1.00000000
C        C    0.18400000  0.79000000  0.42100000  1.00000000
C        C    0.81600000  0.21000000  0.57900000  1.00000000
C        C    0.18400000  0.21000000  0.92100000  1.00000000
C        C    0.31600000  0.29000000  0.07900000  1.00000000
C        C    0.31600000  0.71000000  0.57900000  1.00000000
C        C    0.68400000  0.71000000  0.92100000  1.00000000
C        C    0.81600000  0.79000000  0.07900000  1.00000000
C        C    0.68400000  0.29000000  0.42100000  1.00000000
H        H    0.15851000  0.65765000  0.70299000  1.00000000
H        H    0.84149000  0.34235000  0.29701000  1.00000000
H        H    0.15851000  0.34235000  0.20299000  1.00000000
H        H    0.34149000  0.15765000  0.79701000  1.00000000
H        H    0.34149000  0.84235000  0.29701000  1.00000000
H        H    0.65851000  0.84235000  0.20299000  1.00000000
H        H    0.84149000  0.65765000  0.79701000  1.00000000
H        H    0.65851000  0.15765000  0.70299000  1.00000000
H        H    0.29093000  0.63765000  0.86963000  1.00000000
H        H    0.70907000  0.36235000  0.13037000  1.00000000
H        H    0.29093000  0.36235000  0.36963000  1.00000000
H        H    0.20907000  0.13765000  0.63037000  1.00000000
H        H    0.20907000  0.86235000  0.13037000  1.00000000
H        H    0.79093000  0.86235000  0.36963000  1.00000000
H        H    0.70907000  0.63765000  0.63037000  1.00000000
H        H    0.79093000  0.13765000  0.86963000  1.00000000
