data_MOF-72

_cell_length_a  13.68600000
_cell_length_b  18.25200000
_cell_length_c  14.90600000
_cell_angle_alpha  90.00000000
_cell_angle_beta  101.07000000
_cell_angle_gamma  90.00000000


_symmetry_space_group_name_Hall ' P 1'
_symmetry_space_group_name_H-M  'P 1'
_symmetry_Int_Tables_number     1

loop_
_atom_site_label
_atom_site_type_symbol
_atom_site_fract_x
_atom_site_fract_y
_atom_site_fract_z
_atom_site_charge
Cd       Cd   0.65877000  0.20953000  0.07457000  0.00000000
Cd       Cd   0.34123000  0.79047000  0.92543000  0.00000000
Cd       Cd   0.65877000  0.79047000  0.57457000  0.00000000
Cd       Cd   0.84123000  0.70953000  0.42543000  0.00000000
Cd       Cd   0.84123000  0.29047000  0.92543000  0.00000000
Cd       Cd   0.15877000  0.29047000  0.57457000  0.00000000
Cd       Cd   0.34123000  0.20953000  0.42543000  0.00000000
Cd       Cd   0.15877000  0.70953000  0.07457000  0.00000000
O        O    0.80129000  0.17870000  0.99927000  0.00000000
O        O    0.19871000  0.82130000  0.00073000  0.00000000
O        O    0.80129000  0.82130000  0.49927000  0.00000000
O        O    0.69871000  0.67870000  0.50073000  0.00000000
O        O    0.69871000  0.32130000  0.00073000  0.00000000
O        O    0.30129000  0.32130000  0.49927000  0.00000000
O        O    0.19871000  0.17870000  0.50073000  0.00000000
O        O    0.30129000  0.67870000  0.99927000  0.00000000
O        O    0.65773000  0.12086000  0.96233000  0.00000000
O        O    0.34227000  0.87914000  0.03767000  0.00000000
O        O    0.65773000  0.87914000  0.46233000  0.00000000
O        O    0.84227000  0.62086000  0.53767000  0.00000000
O        O    0.84227000  0.37914000  0.03767000  0.00000000
O        O    0.15773000  0.37914000  0.46233000  0.00000000
O        O    0.34227000  0.12086000  0.53767000  0.00000000
O        O    0.15773000  0.62086000  0.96233000  0.00000000
O        O    0.50311000  0.23507000  0.98676000  0.00000000
O        O    0.49689000  0.76493000  0.01324000  0.00000000
O        O    0.50311000  0.76493000  0.48676000  0.00000000
O        O    0.99689000  0.73507000  0.51324000  0.00000000
O        O    0.99689000  0.26493000  0.01324000  0.00000000
O        O    0.00311000  0.26493000  0.48676000  0.00000000
O        O    0.49689000  0.23507000  0.51324000  0.00000000
O        O    0.00311000  0.73507000  0.98676000  0.00000000
O        O    0.48083000  0.15527000  0.09250000  0.00000000
O        O    0.51917000  0.84473000  0.90750000  0.00000000
O        O    0.48083000  0.84473000  0.59250000  0.00000000
O        O    0.01917000  0.65527000  0.40750000  0.00000000
O        O    0.01917000  0.34473000  0.90750000  0.00000000
O        O    0.98083000  0.34473000  0.59250000  0.00000000
O        O    0.51917000  0.15527000  0.40750000  0.00000000
O        O    0.98083000  0.65527000  0.09250000  0.00000000
O        O    0.38001000  0.09049000  0.23535000  0.00000000
O        O    0.61999000  0.90951000  0.76465000  0.00000000
O        O    0.38001000  0.90951000  0.73535000  0.00000000
O        O    0.11999000  0.59049000  0.26465000  0.00000000
O        O    0.11999000  0.40951000  0.76465000  0.00000000
O        O    0.88001000  0.40951000  0.73535000  0.00000000
O        O    0.61999000  0.09049000  0.26465000  0.00000000
O        O    0.88001000  0.59049000  0.23535000  0.00000000
O        O    0.72661000  0.11252000  0.17079000  0.00000000
O        O    0.27339000  0.88748000  0.82921000  0.00000000
O        O    0.72661000  0.88748000  0.67079000  0.00000000
O        O    0.77339000  0.61252000  0.32921000  0.00000000
O        O    0.77339000  0.38748000  0.82921000  0.00000000
O        O    0.22661000  0.38748000  0.67079000  0.00000000
O        O    0.27339000  0.11252000  0.32921000  0.00000000
O        O    0.22661000  0.61252000  0.17079000  0.00000000
O        O    0.59896000  0.26274000  0.20914000  0.00000000
O        O    0.40104000  0.73726000  0.79086000  0.00000000
O        O    0.59896000  0.73726000  0.70914000  0.00000000
O        O    0.90104000  0.76274000  0.29086000  0.00000000
O        O    0.90104000  0.23726000  0.79086000  0.00000000
O        O    0.09896000  0.23726000  0.70914000  0.00000000
O        O    0.40104000  0.26274000  0.29086000  0.00000000
O        O    0.09896000  0.76274000  0.20914000  0.00000000
O        O    0.75681000  0.26899000  0.19809000  0.00000000
O        O    0.24319000  0.73101000  0.80191000  0.00000000
O        O    0.75681000  0.73101000  0.69809000  0.00000000
O        O    0.74319000  0.76899000  0.30191000  0.00000000
O        O    0.74319000  0.23101000  0.80191000  0.00000000
O        O    0.25681000  0.23101000  0.69809000  0.00000000
O        O    0.24319000  0.26899000  0.30191000  0.00000000
O        O    0.25681000  0.76899000  0.19809000  0.00000000
C        C    0.74800000  0.12874000  0.95668000  0.00000000
C        C    0.25200000  0.87126000  0.04332000  0.00000000
C        C    0.74800000  0.87126000  0.45668000  0.00000000
C        C    0.75200000  0.62874000  0.54332000  0.00000000
C        C    0.75200000  0.37126000  0.04332000  0.00000000
C        C    0.24800000  0.37126000  0.45668000  0.00000000
C        C    0.25200000  0.12874000  0.54332000  0.00000000
C        C    0.24800000  0.62874000  0.95668000  0.00000000
C        C    0.79200000  0.07558000  0.89850000  0.00000000
C        C    0.20800000  0.92442000  0.10150000  0.00000000
C        C    0.79200000  0.92442000  0.39850000  0.00000000
C        C    0.70800000  0.57558000  0.60150000  0.00000000
C        C    0.70800000  0.42442000  0.10150000  0.00000000
C        C    0.29200000  0.42442000  0.39850000  0.00000000
C        C    0.20800000  0.07558000  0.60150000  0.00000000
C        C    0.29200000  0.57558000  0.89850000  0.00000000
C        C    0.89310000  0.07555000  0.89800000  0.00000000
C        C    0.10690000  0.92445000  0.10200000  0.00000000
C        C    0.89310000  0.92445000  0.39800000  0.00000000
C        C    0.60690000  0.57555000  0.60200000  0.00000000
C        C    0.60690000  0.42445000  0.10200000  0.00000000
C        C    0.39310000  0.42445000  0.39800000  0.00000000
C        C    0.10690000  0.07555000  0.60200000  0.00000000
C        C    0.39310000  0.57555000  0.89800000  0.00000000
H        H    0.93600000  0.10900000  0.93550000  0.00000000
H        H    0.06400000  0.89100000  0.06450000  0.00000000
H        H    0.93600000  0.89100000  0.43550000  0.00000000
H        H    0.56400000  0.60900000  0.56450000  0.00000000
H        H    0.56400000  0.39100000  0.06450000  0.00000000
H        H    0.43600000  0.39100000  0.43550000  0.00000000
H        H    0.06400000  0.10900000  0.56450000  0.00000000
H        H    0.43600000  0.60900000  0.93550000  0.00000000
C        C    0.73050000  0.02523000  0.84480000  0.00000000
C        C    0.26950000  0.97477000  0.15520000  0.00000000
C        C    0.73050000  0.97477000  0.34480000  0.00000000
C        C    0.76950000  0.52523000  0.65520000  0.00000000
C        C    0.76950000  0.47477000  0.15520000  0.00000000
C        C    0.23050000  0.47477000  0.34480000  0.00000000
C        C    0.26950000  0.02523000  0.65520000  0.00000000
C        C    0.23050000  0.52523000  0.84480000  0.00000000
H        H    0.66140000  0.02460000  0.84610000  0.00000000
H        H    0.33860000  0.97540000  0.15390000  0.00000000
H        H    0.66140000  0.97540000  0.34610000  0.00000000
H        H    0.83860000  0.52460000  0.65390000  0.00000000
H        H    0.83860000  0.47540000  0.15390000  0.00000000
H        H    0.16140000  0.47540000  0.34610000  0.00000000
H        H    0.33860000  0.02460000  0.65390000  0.00000000
H        H    0.16140000  0.52460000  0.84610000  0.00000000
C        C    0.93180000  0.02659000  0.84260000  0.00000000
C        C    0.06820000  0.97341000  0.15740000  0.00000000
C        C    0.93180000  0.97341000  0.34260000  0.00000000
C        C    0.56820000  0.52659000  0.65740000  0.00000000
C        C    0.56820000  0.47341000  0.15740000  0.00000000
C        C    0.43180000  0.47341000  0.34260000  0.00000000
C        C    0.06820000  0.02659000  0.65740000  0.00000000
C        C    0.43180000  0.52659000  0.84260000  0.00000000
H        H    0.00110000  0.02670000  0.84210000  0.00000000
H        H    0.99890000  0.97330000  0.15790000  0.00000000
H        H    0.00110000  0.97330000  0.34210000  0.00000000
H        H    0.49890000  0.52670000  0.65790000  0.00000000
H        H    0.49890000  0.47330000  0.15790000  0.00000000
H        H    0.50110000  0.47330000  0.34210000  0.00000000
H        H    0.99890000  0.02670000  0.65790000  0.00000000
H        H    0.50110000  0.52670000  0.84210000  0.00000000
C        C    0.13070000  0.02260000  0.21200000  0.00000000
C        C    0.86930000  0.97740000  0.78800000  0.00000000
C        C    0.13070000  0.97740000  0.71200000  0.00000000
C        C    0.36930000  0.52260000  0.28800000  0.00000000
C        C    0.36930000  0.47740000  0.78800000  0.00000000
C        C    0.63070000  0.47740000  0.71200000  0.00000000
C        C    0.86930000  0.02260000  0.28800000  0.00000000
C        C    0.63070000  0.52260000  0.21200000  0.00000000
H        H    0.10400000  0.05540000  0.25050000  0.00000000
H        H    0.89600000  0.94460000  0.74950000  0.00000000
H        H    0.10400000  0.94460000  0.75050000  0.00000000
H        H    0.39600000  0.55540000  0.24950000  0.00000000
H        H    0.39600000  0.44460000  0.74950000  0.00000000
H        H    0.60400000  0.44460000  0.75050000  0.00000000
H        H    0.89600000  0.05540000  0.24950000  0.00000000
H        H    0.60400000  0.55540000  0.25050000  0.00000000
C        C    0.23150000  0.02419000  0.21073000  0.00000000
C        C    0.76850000  0.97581000  0.78927000  0.00000000
C        C    0.23150000  0.97581000  0.71073000  0.00000000
C        C    0.26850000  0.52419000  0.28927000  0.00000000
C        C    0.26850000  0.47581000  0.78927000  0.00000000
C        C    0.73150000  0.47581000  0.71073000  0.00000000
C        C    0.76850000  0.02419000  0.28927000  0.00000000
C        C    0.73150000  0.52419000  0.21073000  0.00000000
C        C    0.30010000  0.08083000  0.26421000  0.00000000
C        C    0.69990000  0.91917000  0.73579000  0.00000000
C        C    0.30010000  0.91917000  0.76421000  0.00000000
C        C    0.19990000  0.58083000  0.23579000  0.00000000
C        C    0.19990000  0.41917000  0.73579000  0.00000000
C        C    0.80010000  0.41917000  0.76421000  0.00000000
C        C    0.69990000  0.08083000  0.23579000  0.00000000
C        C    0.80010000  0.58083000  0.26421000  0.00000000
C        C    0.44860000  0.19303000  0.02180000  0.00000000
C        C    0.55140000  0.80697000  0.97820000  0.00000000
C        C    0.44860000  0.80697000  0.52180000  0.00000000
C        C    0.05140000  0.69303000  0.47820000  0.00000000
C        C    0.05140000  0.30697000  0.97820000  0.00000000
C        C    0.94860000  0.30697000  0.52180000  0.00000000
C        C    0.55140000  0.19303000  0.47820000  0.00000000
C        C    0.94860000  0.69303000  0.02180000  0.00000000
C        C    0.77570000  0.35747000  0.51550000  0.00000000
C        C    0.22430000  0.64253000  0.48450000  0.00000000
C        C    0.77570000  0.64253000  0.01550000  0.00000000
C        C    0.72430000  0.85747000  0.98450000  0.00000000
C        C    0.72430000  0.14253000  0.48450000  0.00000000
C        C    0.27570000  0.14253000  0.01550000  0.00000000
C        C    0.22430000  0.35747000  0.98450000  0.00000000
C        C    0.27570000  0.85747000  0.51550000  0.00000000
H        H    0.79640000  0.37680000  0.57530000  0.00000000
H        H    0.20360000  0.62320000  0.42470000  0.00000000
H        H    0.79640000  0.62320000  0.07530000  0.00000000
H        H    0.70360000  0.87680000  0.92470000  0.00000000
H        H    0.70360000  0.12320000  0.42470000  0.00000000
H        H    0.29640000  0.12320000  0.07530000  0.00000000
H        H    0.20360000  0.37680000  0.92470000  0.00000000
H        H    0.29640000  0.87680000  0.57530000  0.00000000
C        C    0.84220000  0.31764000  0.47496000  0.00000000
C        C    0.15780000  0.68236000  0.52504000  0.00000000
C        C    0.84220000  0.68236000  0.97496000  0.00000000
C        C    0.65780000  0.81764000  0.02504000  0.00000000
C        C    0.65780000  0.18236000  0.52504000  0.00000000
C        C    0.34220000  0.18236000  0.97496000  0.00000000
C        C    0.15780000  0.31764000  0.02504000  0.00000000
C        C    0.34220000  0.81764000  0.47496000  0.00000000
C        C    0.67910000  0.36909000  0.46880000  0.00000000
C        C    0.32090000  0.63091000  0.53120000  0.00000000
C        C    0.67910000  0.63091000  0.96880000  0.00000000
C        C    0.82090000  0.86909000  0.03120000  0.00000000
C        C    0.82090000  0.13091000  0.53120000  0.00000000
C        C    0.17910000  0.13091000  0.96880000  0.00000000
C        C    0.32090000  0.36909000  0.03120000  0.00000000
C        C    0.17910000  0.86909000  0.46880000  0.00000000
H        H    0.63360000  0.39570000  0.49720000  0.00000000
H        H    0.36640000  0.60430000  0.50280000  0.00000000
H        H    0.63360000  0.60430000  0.99720000  0.00000000
H        H    0.86640000  0.89570000  0.00280000  0.00000000
H        H    0.86640000  0.10430000  0.50280000  0.00000000
H        H    0.13360000  0.10430000  0.99720000  0.00000000
H        H    0.36640000  0.39570000  0.00280000  0.00000000
H        H    0.13360000  0.89570000  0.49720000  0.00000000
C        C    0.81140000  0.29115000  0.38720000  0.00000000
C        C    0.18860000  0.70885000  0.61280000  0.00000000
C        C    0.81140000  0.70885000  0.88720000  0.00000000
C        C    0.68860000  0.79115000  0.11280000  0.00000000
C        C    0.68860000  0.20885000  0.61280000  0.00000000
C        C    0.31140000  0.20885000  0.88720000  0.00000000
C        C    0.18860000  0.29115000  0.11280000  0.00000000
C        C    0.31140000  0.79115000  0.38720000  0.00000000
H        H    0.85650000  0.26370000  0.35940000  0.00000000
H        H    0.14350000  0.73630000  0.64060000  0.00000000
H        H    0.85650000  0.73630000  0.85940000  0.00000000
H        H    0.64350000  0.76370000  0.14060000  0.00000000
H        H    0.64350000  0.23630000  0.64060000  0.00000000
H        H    0.35650000  0.23630000  0.85940000  0.00000000
H        H    0.14350000  0.26370000  0.14060000  0.00000000
H        H    0.35650000  0.76370000  0.35940000  0.00000000
C        C    0.64830000  0.34217000  0.38080000  0.00000000
C        C    0.35170000  0.65783000  0.61920000  0.00000000
C        C    0.64830000  0.65783000  0.88080000  0.00000000
C        C    0.85170000  0.84217000  0.11920000  0.00000000
C        C    0.85170000  0.15783000  0.61920000  0.00000000
C        C    0.14830000  0.15783000  0.88080000  0.00000000
C        C    0.35170000  0.34217000  0.11920000  0.00000000
C        C    0.14830000  0.84217000  0.38080000  0.00000000
H        H    0.58190000  0.34960000  0.34920000  0.00000000
H        H    0.41810000  0.65040000  0.65080000  0.00000000
H        H    0.58190000  0.65040000  0.84920000  0.00000000
H        H    0.91810000  0.84960000  0.15080000  0.00000000
H        H    0.91810000  0.15040000  0.65080000  0.00000000
H        H    0.08190000  0.15040000  0.84920000  0.00000000
H        H    0.41810000  0.34960000  0.15080000  0.00000000
H        H    0.08190000  0.84960000  0.34920000  0.00000000
C        C    0.71620000  0.30392000  0.33924000  0.00000000
C        C    0.28380000  0.69608000  0.66076000  0.00000000
C        C    0.71620000  0.69608000  0.83924000  0.00000000
C        C    0.78380000  0.80392000  0.16076000  0.00000000
C        C    0.78380000  0.19608000  0.66076000  0.00000000
C        C    0.21620000  0.19608000  0.83924000  0.00000000
C        C    0.28380000  0.30392000  0.16076000  0.00000000
C        C    0.21620000  0.80392000  0.33924000  0.00000000
C        C    0.68900000  0.27694000  0.24344000  0.00000000
C        C    0.31100000  0.72306000  0.75656000  0.00000000
C        C    0.68900000  0.72306000  0.74344000  0.00000000
C        C    0.81100000  0.77694000  0.25656000  0.00000000
C        C    0.81100000  0.22306000  0.75656000  0.00000000
C        C    0.18900000  0.22306000  0.74344000  0.00000000
C        C    0.31100000  0.27694000  0.25656000  0.00000000
C        C    0.18900000  0.77694000  0.24344000  0.00000000
Cd       Cd   0.50000000  0.82748000  0.75000000  0.00000000
Cd       Cd   0.00000000  0.32748000  0.75000000  0.00000000
Cd       Cd   0.50000000  0.17252000  0.25000000  0.00000000
Cd       Cd   0.00000000  0.67252000  0.25000000  0.00000000
