data_MOF-70

_cell_length_a  9.96170000
_cell_length_b  17.99140000
_cell_length_c  11.51488564
_cell_angle_alpha  90.00000000
_cell_angle_beta  134.87716928
_cell_angle_gamma  90.00000000


_symmetry_space_group_name_Hall ' P 1'
_symmetry_space_group_name_H-M  'P 1'
_symmetry_Int_Tables_number     1

loop_
_atom_site_label
_atom_site_type_symbol
_atom_site_fract_x
_atom_site_fract_y
_atom_site_fract_z
_atom_site_charge
Pb       Pb   0.74795000  0.97110000  0.25242000  0.00000000
Pb       Pb   0.74795000  0.52890000  0.75242000  0.00000000
Pb       Pb   0.25205000  0.02890000  0.74758000  0.00000000
Pb       Pb   0.25205000  0.47110000  0.24758000  0.00000000
O        O    0.59610000  0.07550000  0.26700000  0.00000000
O        O    0.59610000  0.42450000  0.76700000  0.00000000
O        O    0.40390000  0.92450000  0.73300000  0.00000000
O        O    0.40390000  0.57550000  0.23300000  0.00000000
O        O    0.88650000  0.05728000  0.50700000  0.00000000
O        O    0.88650000  0.44272000  0.00700000  0.00000000
O        O    0.11350000  0.94272000  0.49300000  0.00000000
O        O    0.11350000  0.55728000  0.99300000  0.00000000
O        O    0.89070000  0.41609000  0.75100000  0.00000000
O        O    0.89070000  0.08391000  0.25100000  0.00000000
O        O    0.10930000  0.58391000  0.24900000  0.00000000
O        O    0.10930000  0.91609000  0.74900000  0.00000000
H        H    0.98200000  0.28700000  0.75700000  0.00000000
H        H    0.98200000  0.21300000  0.25700000  0.00000000
H        H    0.01800000  0.71300000  0.24300000  0.00000000
H        H    0.01800000  0.78700000  0.74300000  0.00000000
O        O    0.60260000  0.43532000  0.50880000  0.00000000
O        O    0.60260000  0.06468000  0.00880000  0.00000000
O        O    0.39740000  0.56468000  0.49120000  0.00000000
O        O    0.39740000  0.93532000  0.99120000  0.00000000
C        C    0.73990000  0.17370000  0.46190000  0.00000000
C        C    0.73990000  0.32630000  0.96190000  0.00000000
C        C    0.26010000  0.82630000  0.53810000  0.00000000
C        C    0.26010000  0.67370000  0.03810000  0.00000000
C        C    0.89620000  0.19930000  0.61840000  0.00000000
C        C    0.89620000  0.30070000  0.11840000  0.00000000
C        C    0.10380000  0.80070000  0.38160000  0.00000000
C        C    0.10380000  0.69930000  0.88160000  0.00000000
H        H    0.97700000  0.17200000  0.67400000  0.00000000
H        H    0.97700000  0.32800000  0.17400000  0.00000000
H        H    0.02300000  0.82800000  0.32600000  0.00000000
H        H    0.02300000  0.67200000  0.82600000  0.00000000
C        C    0.89570000  0.26970000  0.66540000  0.00000000
C        C    0.89570000  0.23030000  0.16540000  0.00000000
C        C    0.10430000  0.73030000  0.33460000  0.00000000
C        C    0.10430000  0.76970000  0.83460000  0.00000000
C        C    0.74160000  0.31580000  0.55840000  0.00000000
C        C    0.74160000  0.18420000  0.05840000  0.00000000
C        C    0.25840000  0.68420000  0.44160000  0.00000000
C        C    0.25840000  0.81580000  0.94160000  0.00000000
C        C    0.58460000  0.29040000  0.40290000  0.00000000
C        C    0.58460000  0.20960000  0.90290000  0.00000000
C        C    0.41540000  0.70960000  0.59710000  0.00000000
C        C    0.41540000  0.79040000  0.09710000  0.00000000
H        H    0.48900000  0.31700000  0.34200000  0.00000000
H        H    0.48900000  0.18300000  0.84200000  0.00000000
H        H    0.51100000  0.68300000  0.65800000  0.00000000
H        H    0.51100000  0.81700000  0.15800000  0.00000000
C        C    0.58550000  0.21980000  0.35520000  0.00000000
C        C    0.58550000  0.28020000  0.85520000  0.00000000
C        C    0.41450000  0.78020000  0.64480000  0.00000000
C        C    0.41450000  0.71980000  0.14480000  0.00000000
H        H    0.50300000  0.20300000  0.26600000  0.00000000
H        H    0.50300000  0.29700000  0.76600000  0.00000000
H        H    0.49700000  0.79700000  0.73400000  0.00000000
H        H    0.49700000  0.70300000  0.23400000  0.00000000
C        C    0.74150000  0.09780000  0.40990000  0.00000000
C        C    0.74150000  0.40220000  0.90990000  0.00000000
C        C    0.25850000  0.90220000  0.59010000  0.00000000
C        C    0.25850000  0.59780000  0.09010000  0.00000000
C        C    0.74480000  0.39370000  0.60820000  0.00000000
C        C    0.74480000  0.10630000  0.10820000  0.00000000
C        C    0.25520000  0.60630000  0.39180000  0.00000000
C        C    0.25520000  0.89370000  0.89180000  0.00000000
