data_MOF-72

_cell_length_a  11.40660006
_cell_length_b  11.40660006
_cell_length_c  14.90600000
_cell_angle_alpha  83.38548967
_cell_angle_beta  83.38548967
_cell_angle_gamma  106.27226000


_symmetry_space_group_name_Hall ' P 1'
_symmetry_space_group_name_H-M  'P 1'
_symmetry_Int_Tables_number     1

loop_
_atom_site_label
_atom_site_type_symbol
_atom_site_fract_x
_atom_site_fract_y
_atom_site_fract_z
_atom_site_charge
Cd       Cd   0.86830000  0.44924000  0.92543000  0.00000000
Cd       Cd   0.13170000  0.55076000  0.07457000  0.00000000
Cd       Cd   0.44924000  0.86830000  0.42543000  0.00000000
Cd       Cd   0.55076000  0.13170000  0.57457000  0.00000000
O        O    0.97999000  0.62259000  0.00073000  0.00000000
O        O    0.02001000  0.37741000  0.99927000  0.00000000
O        O    0.62259000  0.97999000  0.50073000  0.00000000
O        O    0.37741000  0.02001000  0.49927000  0.00000000
O        O    0.77859000  0.53687000  0.03767000  0.00000000
O        O    0.22141000  0.46313000  0.96233000  0.00000000
O        O    0.53687000  0.77859000  0.53767000  0.00000000
O        O    0.46313000  0.22141000  0.46233000  0.00000000
O        O    0.73818000  0.26804000  0.01324000  0.00000000
O        O    0.26182000  0.73196000  0.98676000  0.00000000
O        O    0.26804000  0.73818000  0.51324000  0.00000000
O        O    0.73196000  0.26182000  0.48676000  0.00000000
O        O    0.63610000  0.32556000  0.90750000  0.00000000
O        O    0.36390000  0.67444000  0.09250000  0.00000000
O        O    0.32556000  0.63610000  0.40750000  0.00000000
O        O    0.67444000  0.36390000  0.59250000  0.00000000
O        O    0.47050000  0.28952000  0.76465000  0.00000000
O        O    0.52950000  0.71048000  0.23535000  0.00000000
O        O    0.28952000  0.47050000  0.26465000  0.00000000
O        O    0.71048000  0.52950000  0.73535000  0.00000000
O        O    0.83913000  0.61409000  0.82921000  0.00000000
O        O    0.16087000  0.38591000  0.17079000  0.00000000
O        O    0.61409000  0.83913000  0.32921000  0.00000000
O        O    0.38591000  0.16087000  0.67079000  0.00000000
O        O    0.86170000  0.33622000  0.79086000  0.00000000
O        O    0.13830000  0.66378000  0.20914000  0.00000000
O        O    0.33622000  0.86170000  0.29086000  0.00000000
O        O    0.66378000  0.13830000  0.70914000  0.00000000
O        O    0.02580000  0.48782000  0.80191000  0.00000000
O        O    0.97420000  0.51218000  0.19809000  0.00000000
O        O    0.48782000  0.02580000  0.30191000  0.00000000
O        O    0.51218000  0.97420000  0.69809000  0.00000000
C        C    0.87674000  0.61926000  0.04332000  0.00000000
C        C    0.12326000  0.38074000  0.95668000  0.00000000
C        C    0.61926000  0.87674000  0.54332000  0.00000000
C        C    0.38074000  0.12326000  0.45668000  0.00000000
C        C    0.86758000  0.71642000  0.10150000  0.00000000
C        C    0.13242000  0.28358000  0.89850000  0.00000000
C        C    0.71642000  0.86758000  0.60150000  0.00000000
C        C    0.28358000  0.13242000  0.39850000  0.00000000
C        C    0.96865000  0.81755000  0.10200000  0.00000000
C        C    0.03135000  0.18245000  0.89800000  0.00000000
C        C    0.81755000  0.96865000  0.60200000  0.00000000
C        C    0.18245000  0.03135000  0.39800000  0.00000000
H        H    0.04500000  0.82700000  0.06450000  0.00000000
H        H    0.95500000  0.17300000  0.93550000  0.00000000
H        H    0.82700000  0.04500000  0.56450000  0.00000000
H        H    0.17300000  0.95500000  0.43550000  0.00000000
C        C    0.75573000  0.70527000  0.15520000  0.00000000
C        C    0.24427000  0.29473000  0.84480000  0.00000000
C        C    0.70527000  0.75573000  0.65520000  0.00000000
C        C    0.29473000  0.24427000  0.34480000  0.00000000
H        H    0.68600000  0.63680000  0.15390000  0.00000000
H        H    0.31400000  0.36320000  0.84610000  0.00000000
H        H    0.63680000  0.68600000  0.65390000  0.00000000
H        H    0.36320000  0.31400000  0.34610000  0.00000000
C        C    0.95839000  0.90521000  0.15740000  0.00000000
C        C    0.04161000  0.09479000  0.84260000  0.00000000
C        C    0.90521000  0.95839000  0.65740000  0.00000000
C        C    0.09479000  0.04161000  0.34260000  0.00000000
H        H    0.02780000  0.97440000  0.15790000  0.00000000
H        H    0.97220000  0.02560000  0.84210000  0.00000000
H        H    0.97440000  0.02780000  0.65790000  0.00000000
H        H    0.02560000  0.97220000  0.34210000  0.00000000
C        C    0.15330000  0.10810000  0.78800000  0.00000000
C        C    0.84670000  0.89190000  0.21200000  0.00000000
C        C    0.10810000  0.15330000  0.28800000  0.00000000
C        C    0.89190000  0.84670000  0.71200000  0.00000000
H        H    0.15940000  0.04860000  0.74950000  0.00000000
H        H    0.84060000  0.95140000  0.25050000  0.00000000
H        H    0.04860000  0.15940000  0.24950000  0.00000000
H        H    0.95140000  0.84060000  0.75050000  0.00000000
C        C    0.25569000  0.20731000  0.78927000  0.00000000
C        C    0.74431000  0.79269000  0.21073000  0.00000000
C        C    0.20731000  0.25569000  0.28927000  0.00000000
C        C    0.79269000  0.74431000  0.71073000  0.00000000
C        C    0.38093000  0.21927000  0.73579000  0.00000000
C        C    0.61907000  0.78073000  0.26421000  0.00000000
C        C    0.21927000  0.38093000  0.23579000  0.00000000
C        C    0.78073000  0.61907000  0.76421000  0.00000000
C        C    0.64163000  0.25557000  0.97820000  0.00000000
C        C    0.35837000  0.74443000  0.02180000  0.00000000
C        C    0.25557000  0.64163000  0.47820000  0.00000000
C        C    0.74443000  0.35837000  0.52180000  0.00000000
C        C    0.13317000  0.41823000  0.48450000  0.00000000
C        C    0.86683000  0.58177000  0.51550000  0.00000000
C        C    0.41823000  0.13317000  0.98450000  0.00000000
C        C    0.58177000  0.86683000  0.01550000  0.00000000
H        H    0.17320000  0.41960000  0.42470000  0.00000000
H        H    0.82680000  0.58040000  0.57530000  0.00000000
H        H    0.41960000  0.17320000  0.92470000  0.00000000
H        H    0.58040000  0.82680000  0.07530000  0.00000000
C        C    0.15984000  0.52456000  0.52504000  0.00000000
C        C    0.84016000  0.47544000  0.47496000  0.00000000
C        C    0.52456000  0.15984000  0.02504000  0.00000000
C        C    0.47544000  0.84016000  0.97496000  0.00000000
C        C    0.04819000  0.31001000  0.53120000  0.00000000
C        C    0.95181000  0.68999000  0.46880000  0.00000000
C        C    0.31001000  0.04819000  0.03120000  0.00000000
C        C    0.68999000  0.95181000  0.96880000  0.00000000
H        H    0.02930000  0.23790000  0.50280000  0.00000000
H        H    0.97070000  0.76210000  0.49720000  0.00000000
H        H    0.23790000  0.02930000  0.00280000  0.00000000
H        H    0.76210000  0.97070000  0.99720000  0.00000000
C        C    0.10255000  0.52025000  0.61280000  0.00000000
C        C    0.89745000  0.47975000  0.38720000  0.00000000
C        C    0.52025000  0.10255000  0.11280000  0.00000000
C        C    0.47975000  0.89745000  0.88720000  0.00000000
H        H    0.12020000  0.59280000  0.64060000  0.00000000
H        H    0.87980000  0.40720000  0.35940000  0.00000000
H        H    0.59280000  0.12020000  0.14060000  0.00000000
H        H    0.40720000  0.87980000  0.85940000  0.00000000
C        C    0.99047000  0.30613000  0.61920000  0.00000000
C        C    0.00953000  0.69387000  0.38080000  0.00000000
C        C    0.30613000  0.99047000  0.11920000  0.00000000
C        C    0.69387000  0.00953000  0.88080000  0.00000000
H        H    0.93150000  0.23230000  0.65080000  0.00000000
H        H    0.06850000  0.76770000  0.34920000  0.00000000
H        H    0.23230000  0.93150000  0.15080000  0.00000000
H        H    0.76770000  0.06850000  0.84920000  0.00000000
C        C    0.02012000  0.41228000  0.66076000  0.00000000
C        C    0.97988000  0.58772000  0.33924000  0.00000000
C        C    0.41228000  0.02012000  0.16076000  0.00000000
C        C    0.58772000  0.97988000  0.83924000  0.00000000
C        C    0.96594000  0.41206000  0.75656000  0.00000000
C        C    0.03406000  0.58794000  0.24344000  0.00000000
C        C    0.41206000  0.96594000  0.25656000  0.00000000
C        C    0.58794000  0.03406000  0.74344000  0.00000000
Cd       Cd   0.32748000  0.67252000  0.25000000  0.00000000
Cd       Cd   0.67252000  0.32748000  0.75000000  0.00000000
