data_PCN-60

_cell_length_a  30.29485867
_cell_length_b  30.29485867
_cell_length_c  30.29485867
_cell_angle_alpha  60.00000000
_cell_angle_beta  60.00000000
_cell_angle_gamma  60.00000000


_symmetry_space_group_name_Hall ' P 1'
_symmetry_space_group_name_H-M  'P 1'
_symmetry_Int_Tables_number     1

loop_
_atom_site_label
_atom_site_type_symbol
_atom_site_fract_x
_atom_site_fract_y
_atom_site_fract_z
_atom_site_charge
Zn       Zn   0.74226600  1.00000000  1.00000000  0.00000000
Zn       Zn   0.25773400  0.74226600  0.00000000  0.00000000
Zn       Zn   0.74226600  0.00000000  0.25773400  0.00000000
Zn       Zn   0.74226600  0.25773400  0.00000000  0.00000000
Zn       Zn   0.25773400  0.00000000  0.74226600  0.00000000
Zn       Zn   1.00000000  0.00000000  0.25773400  0.00000000
Zn       Zn   0.25773400  1.00000000  0.00000000  0.00000000
Zn       Zn   0.00000000  0.00000000  0.74226600  0.00000000
Zn       Zn   0.00000000  0.25773400  1.00000000  0.00000000
Zn       Zn   0.00000000  0.74226600  1.00000000  0.00000000
Zn       Zn   0.00000000  0.74226600  0.25773400  0.00000000
Zn       Zn   0.00000000  0.25773400  0.74226600  0.00000000
Zn       Zn   0.64221000  1.00000000  0.00000000  0.00000000
Zn       Zn   0.35779000  0.64221000  0.00000000  0.00000000
Zn       Zn   0.64221000  0.00000000  0.35779000  0.00000000
Zn       Zn   0.64221000  0.35779000  0.00000000  0.00000000
Zn       Zn   0.35779000  0.00000000  0.64221000  0.00000000
Zn       Zn   1.00000000  0.00000000  0.35779000  0.00000000
Zn       Zn   0.35779000  1.00000000  0.00000000  0.00000000
Zn       Zn   0.00000000  1.00000000  0.64221000  0.00000000
Zn       Zn   0.00000000  0.35779000  1.00000000  0.00000000
Zn       Zn   0.00000000  0.64221000  1.00000000  0.00000000
Zn       Zn   0.00000000  0.64221000  0.35779000  0.00000000
Zn       Zn   0.00000000  0.35779000  0.64221000  0.00000000
O        O    0.30383000  0.92097000  0.76187000  0.00000000
O        O    0.98667000  0.69617000  0.23813000  0.00000000
O        O    0.76187000  0.01333000  0.30383000  0.00000000
O        O    0.01333000  0.92097000  0.30383000  0.00000000
O        O    0.76187000  0.92097000  0.01333000  0.00000000
O        O    0.92097000  0.76187000  0.01333000  0.00000000
O        O    0.30383000  0.76187000  0.01333000  0.00000000
O        O    0.69617000  0.23813000  0.98667000  0.00000000
O        O    0.76187000  0.30383000  0.01333000  0.00000000
O        O    0.07903000  0.23813000  0.98667000  0.00000000
O        O    0.76187000  0.92097000  0.30383000  0.00000000
O        O    0.07903000  0.69617000  0.23813000  0.00000000
O        O    0.01333000  0.92097000  0.76187000  0.00000000
O        O    0.92097000  0.30383000  0.01333000  0.00000000
O        O    0.30383000  0.01333000  0.92097000  0.00000000
O        O    0.76187000  0.01333000  0.92097000  0.00000000
O        O    0.01333000  0.30383000  0.92097000  0.00000000
O        O    0.23813000  0.98667000  0.69617000  0.00000000
O        O    0.23813000  0.69617000  0.98667000  0.00000000
O        O    0.23813000  0.07903000  0.69617000  0.00000000
O        O    0.92097000  0.01333000  0.30383000  0.00000000
O        O    0.98667000  0.07903000  0.23813000  0.00000000
O        O    0.07903000  0.98667000  0.23813000  0.00000000
O        O    0.01333000  0.76187000  0.30383000  0.00000000
O        O    0.92097000  0.30383000  0.76187000  0.00000000
O        O    0.30383000  0.76187000  0.92097000  0.00000000
O        O    0.01333000  0.76187000  0.92097000  0.00000000
O        O    0.07903000  0.23813000  0.69617000  0.00000000
O        O    0.69617000  0.07903000  0.98667000  0.00000000
O        O    0.98667000  0.69617000  0.07903000  0.00000000
O        O    0.98667000  0.07903000  0.69617000  0.00000000
O        O    0.30383000  0.92097000  0.01333000  0.00000000
O        O    0.69617000  0.98667000  0.07903000  0.00000000
O        O    0.01333000  0.30383000  0.76187000  0.00000000
O        O    0.23813000  0.98667000  0.07903000  0.00000000
O        O    0.69617000  0.07903000  0.23813000  0.00000000
O        O    0.92097000  0.01333000  0.76187000  0.00000000
O        O    0.76187000  0.30383000  0.92097000  0.00000000
O        O    0.23813000  0.69617000  0.07903000  0.00000000
O        O    0.69617000  0.98667000  0.23813000  0.00000000
O        O    0.98667000  0.23813000  0.69617000  0.00000000
O        O    0.30383000  0.01333000  0.76187000  0.00000000
O        O    0.23813000  0.07903000  0.98667000  0.00000000
O        O    0.69617000  0.23813000  0.07903000  0.00000000
O        O    0.92097000  0.76187000  0.30383000  0.00000000
O        O    0.07903000  0.98667000  0.69617000  0.00000000
O        O    0.07903000  0.69617000  0.98667000  0.00000000
O        O    0.98667000  0.23813000  0.07903000  0.00000000
O        O    0.37629000  0.92081000  0.68893000  0.00000000
O        O    0.98603000  0.62371000  0.31107000  0.00000000
O        O    0.68893000  0.01397000  0.37629000  0.00000000
O        O    0.01397000  0.92081000  0.37629000  0.00000000
O        O    0.68893000  0.92081000  0.01397000  0.00000000
O        O    0.92081000  0.68893000  0.01397000  0.00000000
O        O    0.37629000  0.68893000  0.01397000  0.00000000
O        O    0.62371000  0.31107000  0.98603000  0.00000000
O        O    0.68893000  0.37629000  0.01397000  0.00000000
O        O    0.07919000  0.31107000  0.98603000  0.00000000
O        O    0.68893000  0.92081000  0.37629000  0.00000000
O        O    0.07919000  0.62371000  0.31107000  0.00000000
O        O    0.01397000  0.92081000  0.68893000  0.00000000
O        O    0.92081000  0.37629000  0.01397000  0.00000000
O        O    0.37629000  0.01397000  0.92081000  0.00000000
O        O    0.68893000  0.01397000  0.92081000  0.00000000
O        O    0.01397000  0.37629000  0.92081000  0.00000000
O        O    0.31107000  0.98603000  0.62371000  0.00000000
O        O    0.31107000  0.62371000  0.98603000  0.00000000
O        O    0.31107000  0.07919000  0.62371000  0.00000000
O        O    0.92081000  0.01397000  0.37629000  0.00000000
O        O    0.98603000  0.07919000  0.31107000  0.00000000
O        O    0.07919000  0.98603000  0.31107000  0.00000000
O        O    0.01397000  0.68893000  0.37629000  0.00000000
O        O    0.92081000  0.37629000  0.68893000  0.00000000
O        O    0.37629000  0.68893000  0.92081000  0.00000000
O        O    0.01397000  0.68893000  0.92081000  0.00000000
O        O    0.07919000  0.31107000  0.62371000  0.00000000
O        O    0.62371000  0.07919000  0.98603000  0.00000000
O        O    0.98603000  0.62371000  0.07919000  0.00000000
O        O    0.98603000  0.07919000  0.62371000  0.00000000
O        O    0.37629000  0.92081000  0.01397000  0.00000000
O        O    0.62371000  0.98603000  0.07919000  0.00000000
O        O    0.01397000  0.37629000  0.68893000  0.00000000
O        O    0.31107000  0.98603000  0.07919000  0.00000000
O        O    0.62371000  0.07919000  0.31107000  0.00000000
O        O    0.92081000  0.01397000  0.68893000  0.00000000
O        O    0.68893000  0.37629000  0.92081000  0.00000000
O        O    0.31107000  0.62371000  0.07919000  0.00000000
O        O    0.62371000  0.98603000  0.31107000  0.00000000
O        O    0.98603000  0.31107000  0.62371000  0.00000000
O        O    0.37629000  0.01397000  0.68893000  0.00000000
O        O    0.31107000  0.07919000  0.98603000  0.00000000
O        O    0.62371000  0.31107000  0.07919000  0.00000000
O        O    0.92081000  0.68893000  0.37629000  0.00000000
O        O    0.07919000  0.98603000  0.62371000  0.00000000
O        O    0.07919000  0.62371000  0.98603000  0.00000000
O        O    0.98603000  0.31107000  0.07919000  0.00000000
C        C    0.35033000  0.89757000  0.73573000  0.00000000
C        C    0.98363000  0.64967000  0.26427000  0.00000000
C        C    0.73573000  0.01637000  0.35033000  0.00000000
C        C    0.01637000  0.89757000  0.35033000  0.00000000
C        C    0.73573000  0.89757000  0.01637000  0.00000000
C        C    0.89757000  0.73573000  0.01637000  0.00000000
C        C    0.35033000  0.73573000  0.01637000  0.00000000
C        C    0.64967000  0.26427000  0.98363000  0.00000000
C        C    0.73573000  0.35033000  0.01637000  0.00000000
C        C    0.10243000  0.26427000  0.98363000  0.00000000
C        C    0.73573000  0.89757000  0.35033000  0.00000000
C        C    0.10243000  0.64967000  0.26427000  0.00000000
C        C    0.01637000  0.89757000  0.73573000  0.00000000
C        C    0.89757000  0.35033000  0.01637000  0.00000000
C        C    0.35033000  0.01637000  0.89757000  0.00000000
C        C    0.73573000  0.01637000  0.89757000  0.00000000
C        C    0.01637000  0.35033000  0.89757000  0.00000000
C        C    0.26427000  0.98363000  0.64967000  0.00000000
C        C    0.26427000  0.64967000  0.98363000  0.00000000
C        C    0.26427000  0.10243000  0.64967000  0.00000000
C        C    0.89757000  0.01637000  0.35033000  0.00000000
C        C    0.98363000  0.10243000  0.26427000  0.00000000
C        C    0.10243000  0.98363000  0.26427000  0.00000000
C        C    0.01637000  0.73573000  0.35033000  0.00000000
C        C    0.89757000  0.35033000  0.73573000  0.00000000
C        C    0.35033000  0.73573000  0.89757000  0.00000000
C        C    0.01637000  0.73573000  0.89757000  0.00000000
C        C    0.10243000  0.26427000  0.64967000  0.00000000
C        C    0.64967000  0.10243000  0.98363000  0.00000000
C        C    0.98363000  0.64967000  0.10243000  0.00000000
C        C    0.98363000  0.10243000  0.64967000  0.00000000
C        C    0.35033000  0.89757000  0.01637000  0.00000000
C        C    0.64967000  0.98363000  0.10243000  0.00000000
C        C    0.01637000  0.35033000  0.73573000  0.00000000
C        C    0.26427000  0.98363000  0.10243000  0.00000000
C        C    0.64967000  0.10243000  0.26427000  0.00000000
C        C    0.89757000  0.01637000  0.73573000  0.00000000
C        C    0.73573000  0.35033000  0.89757000  0.00000000
C        C    0.26427000  0.64967000  0.10243000  0.00000000
C        C    0.64967000  0.98363000  0.26427000  0.00000000
C        C    0.98363000  0.26427000  0.64967000  0.00000000
C        C    0.35033000  0.01637000  0.73573000  0.00000000
C        C    0.26427000  0.10243000  0.98363000  0.00000000
C        C    0.64967000  0.26427000  0.10243000  0.00000000
C        C    0.89757000  0.73573000  0.35033000  0.00000000
C        C    0.10243000  0.98363000  0.64967000  0.00000000
C        C    0.10243000  0.64967000  0.98363000  0.00000000
C        C    0.98363000  0.26427000  0.10243000  0.00000000
C        C    0.81546000  0.81546000  0.02048000  0.00000000
C        C    0.97952000  0.65140000  0.18454000  0.00000000
C        C    0.02048000  0.81546000  0.81546000  0.00000000
C        C    0.34860000  0.81546000  0.02048000  0.00000000
C        C    0.34860000  0.81546000  0.81546000  0.00000000
C        C    0.02048000  0.34860000  0.81546000  0.00000000
C        C    0.18454000  0.97952000  0.18454000  0.00000000
C        C    0.81546000  0.02048000  0.81546000  0.00000000
C        C    0.18454000  0.18454000  0.65140000  0.00000000
C        C    0.65140000  0.18454000  0.97952000  0.00000000
C        C    0.81546000  0.02048000  0.34860000  0.00000000
C        C    0.81546000  0.34860000  0.02048000  0.00000000
C        C    0.18454000  0.65140000  0.18454000  0.00000000
C        C    0.34860000  0.02048000  0.81546000  0.00000000
C        C    0.18454000  0.18454000  0.97952000  0.00000000
C        C    0.81546000  0.34860000  0.81546000  0.00000000
C        C    0.02048000  0.81546000  0.34860000  0.00000000
C        C    0.81546000  0.81546000  0.34860000  0.00000000
C        C    0.65140000  0.18454000  0.18454000  0.00000000
C        C    0.65140000  0.97952000  0.18454000  0.00000000
C        C    0.18454000  0.97952000  0.65140000  0.00000000
C        C    0.97952000  0.18454000  0.18454000  0.00000000
C        C    0.18454000  0.65140000  0.97952000  0.00000000
C        C    0.97952000  0.18454000  0.65140000  0.00000000
H        H    0.83450000  0.83450000  0.01750000  0.00000000
H        H    0.98250000  0.68650000  0.16550000  0.00000000
H        H    0.01750000  0.83450000  0.83450000  0.00000000
H        H    0.31350000  0.83450000  0.01750000  0.00000000
H        H    0.31350000  0.83450000  0.83450000  0.00000000
H        H    0.01750000  0.31350000  0.83450000  0.00000000
H        H    0.16550000  0.98250000  0.16550000  0.00000000
H        H    0.83450000  0.01750000  0.83450000  0.00000000
H        H    0.16550000  0.16550000  0.68650000  0.00000000
H        H    0.68650000  0.16550000  0.98250000  0.00000000
H        H    0.83450000  0.01750000  0.31350000  0.00000000
H        H    0.83450000  0.31350000  0.01750000  0.00000000
H        H    0.16550000  0.68650000  0.16550000  0.00000000
H        H    0.31350000  0.01750000  0.83450000  0.00000000
H        H    0.16550000  0.16550000  0.98250000  0.00000000
H        H    0.83450000  0.31350000  0.83450000  0.00000000
H        H    0.01750000  0.83450000  0.31350000  0.00000000
H        H    0.83450000  0.83450000  0.31350000  0.00000000
H        H    0.68650000  0.16550000  0.16550000  0.00000000
H        H    0.68650000  0.98250000  0.16550000  0.00000000
H        H    0.16550000  0.98250000  0.68650000  0.00000000
H        H    0.98250000  0.16550000  0.16550000  0.00000000
H        H    0.16550000  0.68650000  0.98250000  0.00000000
H        H    0.98250000  0.16550000  0.68650000  0.00000000
C        C    0.37516000  0.84022000  0.76196000  0.00000000
C        C    0.97734000  0.62484000  0.23804000  0.00000000
C        C    0.76196000  0.02266000  0.37516000  0.00000000
C        C    0.02266000  0.84022000  0.37516000  0.00000000
C        C    0.76196000  0.84022000  0.02266000  0.00000000
C        C    0.84022000  0.76196000  0.02266000  0.00000000
C        C    0.37516000  0.76196000  0.02266000  0.00000000
C        C    0.62484000  0.23804000  0.97734000  0.00000000
C        C    0.76196000  0.37516000  0.02266000  0.00000000
C        C    0.15978000  0.23804000  0.97734000  0.00000000
C        C    0.76196000  0.84022000  0.37516000  0.00000000
C        C    0.15978000  0.62484000  0.23804000  0.00000000
C        C    0.02266000  0.84022000  0.76196000  0.00000000
C        C    0.84022000  0.37516000  0.02266000  0.00000000
C        C    0.37516000  0.02266000  0.84022000  0.00000000
C        C    0.76196000  0.02266000  0.84022000  0.00000000
C        C    0.02266000  0.37516000  0.84022000  0.00000000
C        C    0.23804000  0.97734000  0.62484000  0.00000000
C        C    0.23804000  0.62484000  0.97734000  0.00000000
C        C    0.23804000  0.15978000  0.62484000  0.00000000
C        C    0.84022000  0.02266000  0.37516000  0.00000000
C        C    0.97734000  0.15978000  0.23804000  0.00000000
C        C    0.15978000  0.97734000  0.23804000  0.00000000
C        C    0.02266000  0.76196000  0.37516000  0.00000000
C        C    0.84022000  0.37516000  0.76196000  0.00000000
C        C    0.37516000  0.76196000  0.84022000  0.00000000
C        C    0.02266000  0.76196000  0.84022000  0.00000000
C        C    0.15978000  0.23804000  0.62484000  0.00000000
C        C    0.62484000  0.15978000  0.97734000  0.00000000
C        C    0.97734000  0.62484000  0.15978000  0.00000000
C        C    0.97734000  0.15978000  0.62484000  0.00000000
C        C    0.37516000  0.84022000  0.02266000  0.00000000
C        C    0.62484000  0.97734000  0.15978000  0.00000000
C        C    0.02266000  0.37516000  0.76196000  0.00000000
C        C    0.23804000  0.97734000  0.15978000  0.00000000
C        C    0.62484000  0.15978000  0.23804000  0.00000000
C        C    0.84022000  0.02266000  0.76196000  0.00000000
C        C    0.76196000  0.37516000  0.84022000  0.00000000
C        C    0.23804000  0.62484000  0.15978000  0.00000000
C        C    0.62484000  0.97734000  0.23804000  0.00000000
C        C    0.97734000  0.23804000  0.62484000  0.00000000
C        C    0.37516000  0.02266000  0.76196000  0.00000000
C        C    0.23804000  0.15978000  0.97734000  0.00000000
C        C    0.62484000  0.23804000  0.15978000  0.00000000
C        C    0.84022000  0.76196000  0.37516000  0.00000000
C        C    0.15978000  0.97734000  0.62484000  0.00000000
C        C    0.15978000  0.62484000  0.97734000  0.00000000
C        C    0.97734000  0.23804000  0.15978000  0.00000000
C        C    0.42476000  0.81168000  0.73200000  0.00000000
C        C    0.96844000  0.57524000  0.26800000  0.00000000
C        C    0.73200000  0.03156000  0.42476000  0.00000000
C        C    0.03156000  0.81168000  0.42476000  0.00000000
C        C    0.73200000  0.81168000  0.03156000  0.00000000
C        C    0.81168000  0.73200000  0.03156000  0.00000000
C        C    0.42476000  0.73200000  0.03156000  0.00000000
C        C    0.57524000  0.26800000  0.96844000  0.00000000
C        C    0.73200000  0.42476000  0.03156000  0.00000000
C        C    0.18832000  0.26800000  0.96844000  0.00000000
C        C    0.73200000  0.81168000  0.42476000  0.00000000
C        C    0.18832000  0.57524000  0.26800000  0.00000000
C        C    0.03156000  0.81168000  0.73200000  0.00000000
C        C    0.81168000  0.42476000  0.03156000  0.00000000
C        C    0.42476000  0.03156000  0.81168000  0.00000000
C        C    0.73200000  0.03156000  0.81168000  0.00000000
C        C    0.03156000  0.42476000  0.81168000  0.00000000
C        C    0.26800000  0.96844000  0.57524000  0.00000000
C        C    0.26800000  0.57524000  0.96844000  0.00000000
C        C    0.26800000  0.18832000  0.57524000  0.00000000
C        C    0.81168000  0.03156000  0.42476000  0.00000000
C        C    0.96844000  0.18832000  0.26800000  0.00000000
C        C    0.18832000  0.96844000  0.26800000  0.00000000
C        C    0.03156000  0.73200000  0.42476000  0.00000000
C        C    0.81168000  0.42476000  0.73200000  0.00000000
C        C    0.42476000  0.73200000  0.81168000  0.00000000
C        C    0.03156000  0.73200000  0.81168000  0.00000000
C        C    0.18832000  0.26800000  0.57524000  0.00000000
C        C    0.57524000  0.18832000  0.96844000  0.00000000
C        C    0.96844000  0.57524000  0.18832000  0.00000000
C        C    0.96844000  0.18832000  0.57524000  0.00000000
C        C    0.42476000  0.81168000  0.03156000  0.00000000
C        C    0.57524000  0.96844000  0.18832000  0.00000000
C        C    0.03156000  0.42476000  0.73200000  0.00000000
C        C    0.26800000  0.96844000  0.18832000  0.00000000
C        C    0.57524000  0.18832000  0.26800000  0.00000000
C        C    0.81168000  0.03156000  0.73200000  0.00000000
C        C    0.73200000  0.42476000  0.81168000  0.00000000
C        C    0.26800000  0.57524000  0.18832000  0.00000000
C        C    0.57524000  0.96844000  0.26800000  0.00000000
C        C    0.96844000  0.26800000  0.57524000  0.00000000
C        C    0.42476000  0.03156000  0.73200000  0.00000000
C        C    0.26800000  0.18832000  0.96844000  0.00000000
C        C    0.57524000  0.26800000  0.18832000  0.00000000
C        C    0.81168000  0.73200000  0.42476000  0.00000000
C        C    0.18832000  0.96844000  0.57524000  0.00000000
C        C    0.18832000  0.57524000  0.96844000  0.00000000
C        C    0.96844000  0.26800000  0.18832000  0.00000000
H        H    0.44170000  0.82930000  0.69510000  0.00000000
H        H    0.96610000  0.55830000  0.30490000  0.00000000
H        H    0.69510000  0.03390000  0.44170000  0.00000000
H        H    0.03390000  0.82930000  0.44170000  0.00000000
H        H    0.69510000  0.82930000  0.03390000  0.00000000
H        H    0.82930000  0.69510000  0.03390000  0.00000000
H        H    0.44170000  0.69510000  0.03390000  0.00000000
H        H    0.55830000  0.30490000  0.96610000  0.00000000
H        H    0.69510000  0.44170000  0.03390000  0.00000000
H        H    0.17070000  0.30490000  0.96610000  0.00000000
H        H    0.69510000  0.82930000  0.44170000  0.00000000
H        H    0.17070000  0.55830000  0.30490000  0.00000000
H        H    0.03390000  0.82930000  0.69510000  0.00000000
H        H    0.82930000  0.44170000  0.03390000  0.00000000
H        H    0.44170000  0.03390000  0.82930000  0.00000000
H        H    0.69510000  0.03390000  0.82930000  0.00000000
H        H    0.03390000  0.44170000  0.82930000  0.00000000
H        H    0.30490000  0.96610000  0.55830000  0.00000000
H        H    0.30490000  0.55830000  0.96610000  0.00000000
H        H    0.30490000  0.17070000  0.55830000  0.00000000
H        H    0.82930000  0.03390000  0.44170000  0.00000000
H        H    0.96610000  0.17070000  0.30490000  0.00000000
H        H    0.17070000  0.96610000  0.30490000  0.00000000
H        H    0.03390000  0.69510000  0.44170000  0.00000000
H        H    0.82930000  0.44170000  0.69510000  0.00000000
H        H    0.44170000  0.69510000  0.82930000  0.00000000
H        H    0.03390000  0.69510000  0.82930000  0.00000000
H        H    0.17070000  0.30490000  0.55830000  0.00000000
H        H    0.55830000  0.17070000  0.96610000  0.00000000
H        H    0.96610000  0.55830000  0.17070000  0.00000000
H        H    0.96610000  0.17070000  0.55830000  0.00000000
H        H    0.44170000  0.82930000  0.03390000  0.00000000
H        H    0.55830000  0.96610000  0.17070000  0.00000000
H        H    0.03390000  0.44170000  0.69510000  0.00000000
H        H    0.30490000  0.96610000  0.17070000  0.00000000
H        H    0.55830000  0.17070000  0.30490000  0.00000000
H        H    0.82930000  0.03390000  0.69510000  0.00000000
H        H    0.69510000  0.44170000  0.82930000  0.00000000
H        H    0.30490000  0.55830000  0.17070000  0.00000000
H        H    0.55830000  0.96610000  0.30490000  0.00000000
H        H    0.96610000  0.30490000  0.55830000  0.00000000
H        H    0.44170000  0.03390000  0.69510000  0.00000000
H        H    0.30490000  0.17070000  0.96610000  0.00000000
H        H    0.55830000  0.30490000  0.17070000  0.00000000
H        H    0.82930000  0.69510000  0.44170000  0.00000000
H        H    0.17070000  0.96610000  0.55830000  0.00000000
H        H    0.17070000  0.55830000  0.96610000  0.00000000
H        H    0.96610000  0.30490000  0.17070000  0.00000000
C        C    0.75720000  0.75720000  0.03684000  0.00000000
C        C    0.96316000  0.55124000  0.24280000  0.00000000
C        C    0.03684000  0.75720000  0.75720000  0.00000000
C        C    0.44876000  0.75720000  0.03684000  0.00000000
C        C    0.44876000  0.75720000  0.75720000  0.00000000
C        C    0.03684000  0.44876000  0.75720000  0.00000000
C        C    0.24280000  0.96316000  0.24280000  0.00000000
C        C    0.75720000  0.03684000  0.75720000  0.00000000
C        C    0.24280000  0.24280000  0.55124000  0.00000000
C        C    0.55124000  0.24280000  0.96316000  0.00000000
C        C    0.75720000  0.03684000  0.44876000  0.00000000
C        C    0.75720000  0.44876000  0.03684000  0.00000000
C        C    0.24280000  0.55124000  0.24280000  0.00000000
C        C    0.44876000  0.03684000  0.75720000  0.00000000
C        C    0.24280000  0.24280000  0.96316000  0.00000000
C        C    0.75720000  0.44876000  0.75720000  0.00000000
C        C    0.03684000  0.75720000  0.44876000  0.00000000
C        C    0.75720000  0.75720000  0.44876000  0.00000000
C        C    0.55124000  0.24280000  0.24280000  0.00000000
C        C    0.55124000  0.96316000  0.24280000  0.00000000
C        C    0.24280000  0.96316000  0.55124000  0.00000000
C        C    0.96316000  0.24280000  0.24280000  0.00000000
C        C    0.24280000  0.55124000  0.96316000  0.00000000
C        C    0.96316000  0.24280000  0.55124000  0.00000000
C        C    0.72910000  0.72910000  0.04494000  0.00000000
C        C    0.95506000  0.50314000  0.27090000  0.00000000
C        C    0.04494000  0.72910000  0.72910000  0.00000000
C        C    0.49686000  0.72910000  0.04494000  0.00000000
C        C    0.49686000  0.72910000  0.72910000  0.00000000
C        C    0.04494000  0.49686000  0.72910000  0.00000000
C        C    0.27090000  0.95506000  0.27090000  0.00000000
C        C    0.72910000  0.04494000  0.72910000  0.00000000
C        C    0.27090000  0.27090000  0.50314000  0.00000000
C        C    0.50314000  0.27090000  0.95506000  0.00000000
C        C    0.72910000  0.04494000  0.49686000  0.00000000
C        C    0.72910000  0.49686000  0.04494000  0.00000000
C        C    0.27090000  0.50314000  0.27090000  0.00000000
C        C    0.49686000  0.04494000  0.72910000  0.00000000
C        C    0.27090000  0.27090000  0.95506000  0.00000000
C        C    0.72910000  0.49686000  0.72910000  0.00000000
C        C    0.04494000  0.72910000  0.49686000  0.00000000
C        C    0.72910000  0.72910000  0.49686000  0.00000000
C        C    0.50314000  0.27090000  0.27090000  0.00000000
C        C    0.50314000  0.95506000  0.27090000  0.00000000
C        C    0.27090000  0.95506000  0.50314000  0.00000000
C        C    0.95506000  0.27090000  0.27090000  0.00000000
C        C    0.27090000  0.50314000  0.95506000  0.00000000
C        C    0.95506000  0.27090000  0.50314000  0.00000000
C        C    0.70390000  0.70390000  0.05190000  0.00000000
C        C    0.94810000  0.45970000  0.29610000  0.00000000
C        C    0.05190000  0.70390000  0.70390000  0.00000000
C        C    0.54030000  0.70390000  0.05190000  0.00000000
C        C    0.54030000  0.70390000  0.70390000  0.00000000
C        C    0.05190000  0.54030000  0.70390000  0.00000000
C        C    0.29610000  0.94810000  0.29610000  0.00000000
C        C    0.70390000  0.05190000  0.70390000  0.00000000
C        C    0.29610000  0.29610000  0.45970000  0.00000000
C        C    0.45970000  0.29610000  0.94810000  0.00000000
C        C    0.70390000  0.05190000  0.54030000  0.00000000
C        C    0.70390000  0.54030000  0.05190000  0.00000000
C        C    0.29610000  0.45970000  0.29610000  0.00000000
C        C    0.54030000  0.05190000  0.70390000  0.00000000
C        C    0.29610000  0.29610000  0.94810000  0.00000000
C        C    0.70390000  0.54030000  0.70390000  0.00000000
C        C    0.05190000  0.70390000  0.54030000  0.00000000
C        C    0.70390000  0.70390000  0.54030000  0.00000000
C        C    0.45970000  0.29610000  0.29610000  0.00000000
C        C    0.45970000  0.94810000  0.29610000  0.00000000
C        C    0.29610000  0.94810000  0.45970000  0.00000000
C        C    0.94810000  0.29610000  0.29610000  0.00000000
C        C    0.29610000  0.45970000  0.94810000  0.00000000
C        C    0.94810000  0.29610000  0.45970000  0.00000000
C        C    0.67270000  0.67270000  0.05986000  0.00000000
C        C    0.94014000  0.40526000  0.32730000  0.00000000
C        C    0.05986000  0.67270000  0.67270000  0.00000000
C        C    0.59474000  0.67270000  0.05986000  0.00000000
C        C    0.59474000  0.67270000  0.67270000  0.00000000
C        C    0.05986000  0.59474000  0.67270000  0.00000000
C        C    0.32730000  0.94014000  0.32730000  0.00000000
C        C    0.67270000  0.05986000  0.67270000  0.00000000
C        C    0.32730000  0.32730000  0.40526000  0.00000000
C        C    0.40526000  0.32730000  0.94014000  0.00000000
C        C    0.67270000  0.05986000  0.59474000  0.00000000
C        C    0.67270000  0.59474000  0.05986000  0.00000000
C        C    0.32730000  0.40526000  0.32730000  0.00000000
C        C    0.59474000  0.05986000  0.67270000  0.00000000
C        C    0.32730000  0.32730000  0.94014000  0.00000000
C        C    0.67270000  0.59474000  0.67270000  0.00000000
C        C    0.05986000  0.67270000  0.59474000  0.00000000
C        C    0.67270000  0.67270000  0.59474000  0.00000000
C        C    0.40526000  0.32730000  0.32730000  0.00000000
C        C    0.40526000  0.94014000  0.32730000  0.00000000
C        C    0.32730000  0.94014000  0.40526000  0.00000000
C        C    0.94014000  0.32730000  0.32730000  0.00000000
C        C    0.32730000  0.40526000  0.94014000  0.00000000
C        C    0.94014000  0.32730000  0.40526000  0.00000000
C        C    0.61950000  0.61950000  0.06170000  0.00000000
C        C    0.69930000  0.61950000  0.06170000  0.00000000
C        C    0.30070000  0.38050000  0.38050000  0.00000000
C        C    0.06170000  0.61950000  0.69930000  0.00000000
C        C    0.93830000  0.30070000  0.38050000  0.00000000
C        C    0.06170000  0.69930000  0.61950000  0.00000000
C        C    0.61950000  0.69930000  0.06170000  0.00000000
C        C    0.61950000  0.69930000  0.61950000  0.00000000
C        C    0.69930000  0.06170000  0.61950000  0.00000000
C        C    0.38050000  0.38050000  0.93830000  0.00000000
C        C    0.61950000  0.06170000  0.69930000  0.00000000
C        C    0.38050000  0.93830000  0.30070000  0.00000000
C        C    0.93830000  0.38050000  0.38050000  0.00000000
C        C    0.61950000  0.06170000  0.61950000  0.00000000
C        C    0.38050000  0.30070000  0.93830000  0.00000000
C        C    0.38050000  0.30070000  0.38050000  0.00000000
C        C    0.61950000  0.61950000  0.69930000  0.00000000
C        C    0.69930000  0.61950000  0.61950000  0.00000000
C        C    0.38050000  0.93830000  0.38050000  0.00000000
C        C    0.30070000  0.38050000  0.93830000  0.00000000
C        C    0.30070000  0.93830000  0.38050000  0.00000000
C        C    0.38050000  0.38050000  0.30070000  0.00000000
C        C    0.93830000  0.38050000  0.30070000  0.00000000
C        C    0.06170000  0.61950000  0.61950000  0.00000000
H        H    0.60060000  0.60060000  0.06440000  0.00000000
H        H    0.73440000  0.60060000  0.06440000  0.00000000
H        H    0.26560000  0.39940000  0.39940000  0.00000000
H        H    0.06440000  0.60060000  0.73440000  0.00000000
H        H    0.93560000  0.26560000  0.39940000  0.00000000
H        H    0.06440000  0.73440000  0.60060000  0.00000000
H        H    0.60060000  0.73440000  0.06440000  0.00000000
H        H    0.60060000  0.73440000  0.60060000  0.00000000
H        H    0.73440000  0.06440000  0.60060000  0.00000000
H        H    0.39940000  0.39940000  0.93560000  0.00000000
H        H    0.60060000  0.06440000  0.73440000  0.00000000
H        H    0.39940000  0.93560000  0.26560000  0.00000000
H        H    0.93560000  0.39940000  0.39940000  0.00000000
H        H    0.60060000  0.06440000  0.60060000  0.00000000
H        H    0.39940000  0.26560000  0.93560000  0.00000000
H        H    0.39940000  0.26560000  0.39940000  0.00000000
H        H    0.60060000  0.60060000  0.73440000  0.00000000
H        H    0.73440000  0.60060000  0.60060000  0.00000000
H        H    0.39940000  0.93560000  0.39940000  0.00000000
H        H    0.26560000  0.39940000  0.93560000  0.00000000
H        H    0.26560000  0.93560000  0.39940000  0.00000000
H        H    0.39940000  0.39940000  0.26560000  0.00000000
H        H    0.93560000  0.39940000  0.26560000  0.00000000
H        H    0.06440000  0.60060000  0.60060000  0.00000000
