data_PCN-61

_cell_length_a  30.26120039
_cell_length_b  30.26120039
_cell_length_c  30.26120039
_cell_angle_alpha  60.00000000
_cell_angle_beta  60.00000000
_cell_angle_gamma  60.00000000


_symmetry_space_group_name_Hall ' P 1'
_symmetry_space_group_name_H-M  'P 1'
_symmetry_Int_Tables_number     1

loop_
_atom_site_label
_atom_site_type_symbol
_atom_site_fract_x
_atom_site_fract_y
_atom_site_fract_z
_atom_site_charge
Cu       Cu   1.00000000  0.26270000  0.73730000  0.00000000
Cu       Cu   1.00000000  1.00000000  0.26270000  0.00000000
Cu       Cu   0.26270000  1.00000000  0.73730000  0.00000000
Cu       Cu   1.00000000  0.00000000  0.73730000  0.00000000
Cu       Cu   0.73730000  0.00000000  0.26270000  0.00000000
Cu       Cu   0.26270000  0.73730000  0.00000000  0.00000000
Cu       Cu   1.00000000  0.73730000  0.26270000  0.00000000
Cu       Cu   0.73730000  0.26270000  0.00000000  0.00000000
Cu       Cu   1.00000000  0.73730000  0.00000000  0.00000000
Cu       Cu   1.00000000  0.26270000  0.00000000  0.00000000
Cu       Cu   0.26270000  0.00000000  0.00000000  0.00000000
Cu       Cu   0.73730000  0.00000000  0.00000000  0.00000000
Cu       Cu   1.00000000  0.35022000  0.64978000  0.00000000
Cu       Cu   1.00000000  1.00000000  0.35022000  0.00000000
Cu       Cu   0.35022000  0.00000000  0.64978000  0.00000000
Cu       Cu   1.00000000  0.00000000  0.64978000  0.00000000
Cu       Cu   0.64978000  0.00000000  0.35022000  0.00000000
Cu       Cu   0.35022000  0.64978000  1.00000000  0.00000000
Cu       Cu   1.00000000  0.64978000  0.35022000  0.00000000
Cu       Cu   0.64978000  0.35022000  0.00000000  0.00000000
Cu       Cu   1.00000000  0.64978000  0.00000000  0.00000000
Cu       Cu   1.00000000  0.35022000  0.00000000  0.00000000
Cu       Cu   0.35022000  0.00000000  0.00000000  0.00000000
Cu       Cu   0.64978000  0.00000000  0.00000000  0.00000000
O        O    0.76298000  0.01242000  0.30180000  0.00000000
O        O    0.23702000  0.07720000  0.98758000  0.00000000
O        O    0.30180000  0.92280000  0.76298000  0.00000000
O        O    0.30180000  0.76298000  0.01242000  0.00000000
O        O    0.01242000  0.30180000  0.76298000  0.00000000
O        O    0.01242000  0.30180000  0.92280000  0.00000000
O        O    0.01242000  0.92280000  0.30180000  0.00000000
O        O    0.98758000  0.07720000  0.69820000  0.00000000
O        O    0.01242000  0.92280000  0.76298000  0.00000000
O        O    0.98758000  0.69820000  0.07720000  0.00000000
O        O    0.30180000  0.01242000  0.76298000  0.00000000
O        O    0.23702000  0.98758000  0.07720000  0.00000000
O        O    0.76298000  0.30180000  0.01242000  0.00000000
O        O    0.01242000  0.76298000  0.92280000  0.00000000
O        O    0.92280000  0.76298000  0.30180000  0.00000000
O        O    0.92280000  0.30180000  0.76298000  0.00000000
O        O    0.92280000  0.76298000  0.01242000  0.00000000
O        O    0.69820000  0.07720000  0.23702000  0.00000000
O        O    0.98758000  0.07720000  0.23702000  0.00000000
O        O    0.69820000  0.98758000  0.23702000  0.00000000
O        O    0.30180000  0.76298000  0.92280000  0.00000000
O        O    0.23702000  0.69820000  0.98758000  0.00000000
O        O    0.23702000  0.69820000  0.07720000  0.00000000
O        O    0.30180000  0.92280000  0.01242000  0.00000000
O        O    0.76298000  0.01242000  0.92280000  0.00000000
O        O    0.92280000  0.01242000  0.30180000  0.00000000
O        O    0.92280000  0.30180000  0.01242000  0.00000000
O        O    0.69820000  0.98758000  0.07720000  0.00000000
O        O    0.98758000  0.23702000  0.69820000  0.00000000
O        O    0.07720000  0.23702000  0.98758000  0.00000000
O        O    0.69820000  0.23702000  0.98758000  0.00000000
O        O    0.01242000  0.76298000  0.30180000  0.00000000
O        O    0.07720000  0.23702000  0.69820000  0.00000000
O        O    0.76298000  0.92280000  0.01242000  0.00000000
O        O    0.07720000  0.69820000  0.23702000  0.00000000
O        O    0.23702000  0.98758000  0.69820000  0.00000000
O        O    0.76298000  0.30180000  0.92280000  0.00000000
O        O    0.92280000  0.01242000  0.76298000  0.00000000
O        O    0.07720000  0.98758000  0.23702000  0.00000000
O        O    0.23702000  0.07720000  0.69820000  0.00000000
O        O    0.69820000  0.07720000  0.98758000  0.00000000
O        O    0.76298000  0.92280000  0.30180000  0.00000000
O        O    0.98758000  0.69820000  0.23702000  0.00000000
O        O    0.07720000  0.98758000  0.69820000  0.00000000
O        O    0.30180000  0.01242000  0.92280000  0.00000000
O        O    0.69820000  0.23702000  0.07720000  0.00000000
O        O    0.98758000  0.23702000  0.07720000  0.00000000
O        O    0.07720000  0.69820000  0.98758000  0.00000000
O        O    0.68960000  0.01408000  0.37492000  0.00000000
O        O    0.31040000  0.07860000  0.98592000  0.00000000
O        O    0.37492000  0.92140000  0.68960000  0.00000000
O        O    0.37492000  0.68960000  0.01408000  0.00000000
O        O    0.01408000  0.37492000  0.68960000  0.00000000
O        O    0.01408000  0.37492000  0.92140000  0.00000000
O        O    0.01408000  0.92140000  0.37492000  0.00000000
O        O    0.98592000  0.07860000  0.62508000  0.00000000
O        O    0.01408000  0.92140000  0.68960000  0.00000000
O        O    0.98592000  0.62508000  0.07860000  0.00000000
O        O    0.37492000  0.01408000  0.68960000  0.00000000
O        O    0.31040000  0.98592000  0.07860000  0.00000000
O        O    0.68960000  0.37492000  0.01408000  0.00000000
O        O    0.01408000  0.68960000  0.92140000  0.00000000
O        O    0.92140000  0.68960000  0.37492000  0.00000000
O        O    0.92140000  0.37492000  0.68960000  0.00000000
O        O    0.92140000  0.68960000  0.01408000  0.00000000
O        O    0.62508000  0.07860000  0.31040000  0.00000000
O        O    0.98592000  0.07860000  0.31040000  0.00000000
O        O    0.62508000  0.98592000  0.31040000  0.00000000
O        O    0.37492000  0.68960000  0.92140000  0.00000000
O        O    0.31040000  0.62508000  0.98592000  0.00000000
O        O    0.31040000  0.62508000  0.07860000  0.00000000
O        O    0.37492000  0.92140000  0.01408000  0.00000000
O        O    0.68960000  0.01408000  0.92140000  0.00000000
O        O    0.92140000  0.01408000  0.37492000  0.00000000
O        O    0.92140000  0.37492000  0.01408000  0.00000000
O        O    0.62508000  0.98592000  0.07860000  0.00000000
O        O    0.98592000  0.31040000  0.62508000  0.00000000
O        O    0.07860000  0.31040000  0.98592000  0.00000000
O        O    0.62508000  0.31040000  0.98592000  0.00000000
O        O    0.01408000  0.68960000  0.37492000  0.00000000
O        O    0.07860000  0.31040000  0.62508000  0.00000000
O        O    0.68960000  0.92140000  0.01408000  0.00000000
O        O    0.07860000  0.62508000  0.31040000  0.00000000
O        O    0.31040000  0.98592000  0.62508000  0.00000000
O        O    0.68960000  0.37492000  0.92140000  0.00000000
O        O    0.92140000  0.01408000  0.68960000  0.00000000
O        O    0.07860000  0.98592000  0.31040000  0.00000000
O        O    0.31040000  0.07860000  0.62508000  0.00000000
O        O    0.62508000  0.07860000  0.98592000  0.00000000
O        O    0.68960000  0.92140000  0.37492000  0.00000000
O        O    0.98592000  0.62508000  0.31040000  0.00000000
O        O    0.07860000  0.98592000  0.62508000  0.00000000
O        O    0.37492000  0.01408000  0.92140000  0.00000000
O        O    0.62508000  0.31040000  0.07860000  0.00000000
O        O    0.98592000  0.31040000  0.07860000  0.00000000
O        O    0.07860000  0.62508000  0.98592000  0.00000000
C        C    0.73830000  0.01730000  0.35010000  0.00000000
C        C    0.26170000  0.10570000  0.98270000  0.00000000
C        C    0.35010000  0.89430000  0.73830000  0.00000000
C        C    0.35010000  0.73830000  0.01730000  0.00000000
C        C    0.01730000  0.35010000  0.73830000  0.00000000
C        C    0.01730000  0.35010000  0.89430000  0.00000000
C        C    0.01730000  0.89430000  0.35010000  0.00000000
C        C    0.98270000  0.10570000  0.64990000  0.00000000
C        C    0.01730000  0.89430000  0.73830000  0.00000000
C        C    0.98270000  0.64990000  0.10570000  0.00000000
C        C    0.35010000  0.01730000  0.73830000  0.00000000
C        C    0.26170000  0.98270000  0.10570000  0.00000000
C        C    0.73830000  0.35010000  0.01730000  0.00000000
C        C    0.01730000  0.73830000  0.89430000  0.00000000
C        C    0.89430000  0.73830000  0.35010000  0.00000000
C        C    0.89430000  0.35010000  0.73830000  0.00000000
C        C    0.89430000  0.73830000  0.01730000  0.00000000
C        C    0.64990000  0.10570000  0.26170000  0.00000000
C        C    0.98270000  0.10570000  0.26170000  0.00000000
C        C    0.64990000  0.98270000  0.26170000  0.00000000
C        C    0.35010000  0.73830000  0.89430000  0.00000000
C        C    0.26170000  0.64990000  0.98270000  0.00000000
C        C    0.26170000  0.64990000  0.10570000  0.00000000
C        C    0.35010000  0.89430000  0.01730000  0.00000000
C        C    0.73830000  0.01730000  0.89430000  0.00000000
C        C    0.89430000  0.01730000  0.35010000  0.00000000
C        C    0.89430000  0.35010000  0.01730000  0.00000000
C        C    0.64990000  0.98270000  0.10570000  0.00000000
C        C    0.98270000  0.26170000  0.64990000  0.00000000
C        C    0.10570000  0.26170000  0.98270000  0.00000000
C        C    0.64990000  0.26170000  0.98270000  0.00000000
C        C    0.01730000  0.73830000  0.35010000  0.00000000
C        C    0.10570000  0.26170000  0.64990000  0.00000000
C        C    0.73830000  0.89430000  0.01730000  0.00000000
C        C    0.10570000  0.64990000  0.26170000  0.00000000
C        C    0.26170000  0.98270000  0.64990000  0.00000000
C        C    0.73830000  0.35010000  0.89430000  0.00000000
C        C    0.89430000  0.01730000  0.73830000  0.00000000
C        C    0.10570000  0.98270000  0.26170000  0.00000000
C        C    0.26170000  0.10570000  0.64990000  0.00000000
C        C    0.64990000  0.10570000  0.98270000  0.00000000
C        C    0.73830000  0.89430000  0.35010000  0.00000000
C        C    0.98270000  0.64990000  0.26170000  0.00000000
C        C    0.10570000  0.98270000  0.64990000  0.00000000
C        C    0.35010000  0.01730000  0.89430000  0.00000000
C        C    0.64990000  0.26170000  0.10570000  0.00000000
C        C    0.98270000  0.26170000  0.10570000  0.00000000
C        C    0.10570000  0.64990000  0.98270000  0.00000000
C        C    0.02350000  0.34470000  0.81590000  0.00000000
C        C    0.18410000  0.18410000  0.97650000  0.00000000
C        C    0.81590000  0.34470000  0.02350000  0.00000000
C        C    0.02350000  0.81590000  0.34470000  0.00000000
C        C    0.81590000  0.02350000  0.34470000  0.00000000
C        C    0.81590000  0.81590000  0.02350000  0.00000000
C        C    0.18410000  0.65530000  0.18410000  0.00000000
C        C    0.81590000  0.34470000  0.81590000  0.00000000
C        C    0.65530000  0.97650000  0.18410000  0.00000000
C        C    0.97650000  0.18410000  0.65530000  0.00000000
C        C    0.34470000  0.81590000  0.81590000  0.00000000
C        C    0.02350000  0.81590000  0.81590000  0.00000000
C        C    0.18410000  0.97650000  0.18410000  0.00000000
C        C    0.81590000  0.81590000  0.34470000  0.00000000
C        C    0.97650000  0.65530000  0.18410000  0.00000000
C        C    0.81590000  0.02350000  0.81590000  0.00000000
C        C    0.34470000  0.81590000  0.02350000  0.00000000
C        C    0.34470000  0.02350000  0.81590000  0.00000000
C        C    0.18410000  0.97650000  0.65530000  0.00000000
C        C    0.18410000  0.18410000  0.65530000  0.00000000
C        C    0.65530000  0.18410000  0.18410000  0.00000000
C        C    0.18410000  0.65530000  0.97650000  0.00000000
C        C    0.97650000  0.18410000  0.18410000  0.00000000
C        C    0.65530000  0.18410000  0.97650000  0.00000000
H        H    0.02240000  0.30880000  0.83440000  0.00000000
H        H    0.16560000  0.16560000  0.97760000  0.00000000
H        H    0.83440000  0.30880000  0.02240000  0.00000000
H        H    0.02240000  0.83440000  0.30880000  0.00000000
H        H    0.83440000  0.02240000  0.30880000  0.00000000
H        H    0.83440000  0.83440000  0.02240000  0.00000000
H        H    0.16560000  0.69120000  0.16560000  0.00000000
H        H    0.83440000  0.30880000  0.83440000  0.00000000
H        H    0.69120000  0.97760000  0.16560000  0.00000000
H        H    0.97760000  0.16560000  0.69120000  0.00000000
H        H    0.30880000  0.83440000  0.83440000  0.00000000
H        H    0.02240000  0.83440000  0.83440000  0.00000000
H        H    0.16560000  0.97760000  0.16560000  0.00000000
H        H    0.83440000  0.83440000  0.30880000  0.00000000
H        H    0.97760000  0.69120000  0.16560000  0.00000000
H        H    0.83440000  0.02240000  0.83440000  0.00000000
H        H    0.30880000  0.83440000  0.02240000  0.00000000
H        H    0.30880000  0.02240000  0.83440000  0.00000000
H        H    0.16560000  0.97760000  0.69120000  0.00000000
H        H    0.16560000  0.16560000  0.69120000  0.00000000
H        H    0.69120000  0.16560000  0.16560000  0.00000000
H        H    0.16560000  0.69120000  0.97760000  0.00000000
H        H    0.97760000  0.16560000  0.16560000  0.00000000
H        H    0.69120000  0.16560000  0.97760000  0.00000000
C        C    0.76420000  0.02460000  0.37580000  0.00000000
C        C    0.23580000  0.16460000  0.97540000  0.00000000
C        C    0.37580000  0.83540000  0.76420000  0.00000000
C        C    0.37580000  0.76420000  0.02460000  0.00000000
C        C    0.02460000  0.37580000  0.76420000  0.00000000
C        C    0.02460000  0.37580000  0.83540000  0.00000000
C        C    0.02460000  0.83540000  0.37580000  0.00000000
C        C    0.97540000  0.16460000  0.62420000  0.00000000
C        C    0.02460000  0.83540000  0.76420000  0.00000000
C        C    0.97540000  0.62420000  0.16460000  0.00000000
C        C    0.37580000  0.02460000  0.76420000  0.00000000
C        C    0.23580000  0.97540000  0.16460000  0.00000000
C        C    0.76420000  0.37580000  0.02460000  0.00000000
C        C    0.02460000  0.76420000  0.83540000  0.00000000
C        C    0.83540000  0.76420000  0.37580000  0.00000000
C        C    0.83540000  0.37580000  0.76420000  0.00000000
C        C    0.83540000  0.76420000  0.02460000  0.00000000
C        C    0.62420000  0.16460000  0.23580000  0.00000000
C        C    0.97540000  0.16460000  0.23580000  0.00000000
C        C    0.62420000  0.97540000  0.23580000  0.00000000
C        C    0.37580000  0.76420000  0.83540000  0.00000000
C        C    0.23580000  0.62420000  0.97540000  0.00000000
C        C    0.23580000  0.62420000  0.16460000  0.00000000
C        C    0.37580000  0.83540000  0.02460000  0.00000000
C        C    0.76420000  0.02460000  0.83540000  0.00000000
C        C    0.83540000  0.02460000  0.37580000  0.00000000
C        C    0.83540000  0.37580000  0.02460000  0.00000000
C        C    0.62420000  0.97540000  0.16460000  0.00000000
C        C    0.97540000  0.23580000  0.62420000  0.00000000
C        C    0.16460000  0.23580000  0.97540000  0.00000000
C        C    0.62420000  0.23580000  0.97540000  0.00000000
C        C    0.02460000  0.76420000  0.37580000  0.00000000
C        C    0.16460000  0.23580000  0.62420000  0.00000000
C        C    0.76420000  0.83540000  0.02460000  0.00000000
C        C    0.16460000  0.62420000  0.23580000  0.00000000
C        C    0.23580000  0.97540000  0.62420000  0.00000000
C        C    0.76420000  0.37580000  0.83540000  0.00000000
C        C    0.83540000  0.02460000  0.76420000  0.00000000
C        C    0.16460000  0.97540000  0.23580000  0.00000000
C        C    0.23580000  0.16460000  0.62420000  0.00000000
C        C    0.62420000  0.16460000  0.97540000  0.00000000
C        C    0.76420000  0.83540000  0.37580000  0.00000000
C        C    0.97540000  0.62420000  0.23580000  0.00000000
C        C    0.16460000  0.97540000  0.62420000  0.00000000
C        C    0.37580000  0.02460000  0.83540000  0.00000000
C        C    0.62420000  0.23580000  0.16460000  0.00000000
C        C    0.97540000  0.23580000  0.16460000  0.00000000
C        C    0.16460000  0.62420000  0.97540000  0.00000000
C        C    0.73310000  0.03110000  0.42470000  0.00000000
C        C    0.26690000  0.18890000  0.96890000  0.00000000
C        C    0.42470000  0.81110000  0.73310000  0.00000000
C        C    0.42470000  0.73310000  0.03110000  0.00000000
C        C    0.03110000  0.42470000  0.73310000  0.00000000
C        C    0.03110000  0.42470000  0.81110000  0.00000000
C        C    0.03110000  0.81110000  0.42470000  0.00000000
C        C    0.96890000  0.18890000  0.57530000  0.00000000
C        C    0.03110000  0.81110000  0.73310000  0.00000000
C        C    0.96890000  0.57530000  0.18890000  0.00000000
C        C    0.42470000  0.03110000  0.73310000  0.00000000
C        C    0.26690000  0.96890000  0.18890000  0.00000000
C        C    0.73310000  0.42470000  0.03110000  0.00000000
C        C    0.03110000  0.73310000  0.81110000  0.00000000
C        C    0.81110000  0.73310000  0.42470000  0.00000000
C        C    0.81110000  0.42470000  0.73310000  0.00000000
C        C    0.81110000  0.73310000  0.03110000  0.00000000
C        C    0.57530000  0.18890000  0.26690000  0.00000000
C        C    0.96890000  0.18890000  0.26690000  0.00000000
C        C    0.57530000  0.96890000  0.26690000  0.00000000
C        C    0.42470000  0.73310000  0.81110000  0.00000000
C        C    0.26690000  0.57530000  0.96890000  0.00000000
C        C    0.26690000  0.57530000  0.18890000  0.00000000
C        C    0.42470000  0.81110000  0.03110000  0.00000000
C        C    0.73310000  0.03110000  0.81110000  0.00000000
C        C    0.81110000  0.03110000  0.42470000  0.00000000
C        C    0.81110000  0.42470000  0.03110000  0.00000000
C        C    0.57530000  0.96890000  0.18890000  0.00000000
C        C    0.96890000  0.26690000  0.57530000  0.00000000
C        C    0.18890000  0.26690000  0.96890000  0.00000000
C        C    0.57530000  0.26690000  0.96890000  0.00000000
C        C    0.03110000  0.73310000  0.42470000  0.00000000
C        C    0.18890000  0.26690000  0.57530000  0.00000000
C        C    0.73310000  0.81110000  0.03110000  0.00000000
C        C    0.18890000  0.57530000  0.26690000  0.00000000
C        C    0.26690000  0.96890000  0.57530000  0.00000000
C        C    0.73310000  0.42470000  0.81110000  0.00000000
C        C    0.81110000  0.03110000  0.73310000  0.00000000
C        C    0.18890000  0.96890000  0.26690000  0.00000000
C        C    0.26690000  0.18890000  0.57530000  0.00000000
C        C    0.57530000  0.18890000  0.96890000  0.00000000
C        C    0.73310000  0.81110000  0.42470000  0.00000000
C        C    0.96890000  0.57530000  0.26690000  0.00000000
C        C    0.18890000  0.96890000  0.57530000  0.00000000
C        C    0.42470000  0.03110000  0.81110000  0.00000000
C        C    0.57530000  0.26690000  0.18890000  0.00000000
C        C    0.96890000  0.26690000  0.18890000  0.00000000
C        C    0.18890000  0.57530000  0.96890000  0.00000000
H        H    0.69670000  0.03150000  0.44170000  0.00000000
H        H    0.30330000  0.16990000  0.96850000  0.00000000
H        H    0.44170000  0.83010000  0.69670000  0.00000000
H        H    0.44170000  0.69670000  0.03150000  0.00000000
H        H    0.03150000  0.44170000  0.69670000  0.00000000
H        H    0.03150000  0.44170000  0.83010000  0.00000000
H        H    0.03150000  0.83010000  0.44170000  0.00000000
H        H    0.96850000  0.16990000  0.55830000  0.00000000
H        H    0.03150000  0.83010000  0.69670000  0.00000000
H        H    0.96850000  0.55830000  0.16990000  0.00000000
H        H    0.44170000  0.03150000  0.69670000  0.00000000
H        H    0.30330000  0.96850000  0.16990000  0.00000000
H        H    0.69670000  0.44170000  0.03150000  0.00000000
H        H    0.03150000  0.69670000  0.83010000  0.00000000
H        H    0.83010000  0.69670000  0.44170000  0.00000000
H        H    0.83010000  0.44170000  0.69670000  0.00000000
H        H    0.83010000  0.69670000  0.03150000  0.00000000
H        H    0.55830000  0.16990000  0.30330000  0.00000000
H        H    0.96850000  0.16990000  0.30330000  0.00000000
H        H    0.55830000  0.96850000  0.30330000  0.00000000
H        H    0.44170000  0.69670000  0.83010000  0.00000000
H        H    0.30330000  0.55830000  0.96850000  0.00000000
H        H    0.30330000  0.55830000  0.16990000  0.00000000
H        H    0.44170000  0.83010000  0.03150000  0.00000000
H        H    0.69670000  0.03150000  0.83010000  0.00000000
H        H    0.83010000  0.03150000  0.44170000  0.00000000
H        H    0.83010000  0.44170000  0.03150000  0.00000000
H        H    0.55830000  0.96850000  0.16990000  0.00000000
H        H    0.96850000  0.30330000  0.55830000  0.00000000
H        H    0.16990000  0.30330000  0.96850000  0.00000000
H        H    0.55830000  0.30330000  0.96850000  0.00000000
H        H    0.03150000  0.69670000  0.44170000  0.00000000
H        H    0.16990000  0.30330000  0.55830000  0.00000000
H        H    0.69670000  0.83010000  0.03150000  0.00000000
H        H    0.16990000  0.55830000  0.30330000  0.00000000
H        H    0.30330000  0.96850000  0.55830000  0.00000000
H        H    0.69670000  0.44170000  0.83010000  0.00000000
H        H    0.83010000  0.03150000  0.69670000  0.00000000
H        H    0.16990000  0.96850000  0.30330000  0.00000000
H        H    0.30330000  0.16990000  0.55830000  0.00000000
H        H    0.55830000  0.16990000  0.96850000  0.00000000
H        H    0.69670000  0.83010000  0.44170000  0.00000000
H        H    0.96850000  0.55830000  0.30330000  0.00000000
H        H    0.16990000  0.96850000  0.55830000  0.00000000
H        H    0.44170000  0.03150000  0.83010000  0.00000000
H        H    0.55830000  0.30330000  0.16990000  0.00000000
H        H    0.96850000  0.30330000  0.16990000  0.00000000
H        H    0.16990000  0.55830000  0.96850000  0.00000000
C        C    0.03720000  0.44760000  0.75760000  0.00000000
C        C    0.24240000  0.24240000  0.96280000  0.00000000
C        C    0.75760000  0.44760000  0.03720000  0.00000000
C        C    0.03720000  0.75760000  0.44760000  0.00000000
C        C    0.75760000  0.03720000  0.44760000  0.00000000
C        C    0.75760000  0.75760000  0.03720000  0.00000000
C        C    0.24240000  0.55240000  0.24240000  0.00000000
C        C    0.75760000  0.44760000  0.75760000  0.00000000
C        C    0.55240000  0.96280000  0.24240000  0.00000000
C        C    0.96280000  0.24240000  0.55240000  0.00000000
C        C    0.44760000  0.75760000  0.75760000  0.00000000
C        C    0.03720000  0.75760000  0.75760000  0.00000000
C        C    0.24240000  0.96280000  0.24240000  0.00000000
C        C    0.75760000  0.75760000  0.44760000  0.00000000
C        C    0.96280000  0.55240000  0.24240000  0.00000000
C        C    0.75760000  0.03720000  0.75760000  0.00000000
C        C    0.44760000  0.75760000  0.03720000  0.00000000
C        C    0.44760000  0.03720000  0.75760000  0.00000000
C        C    0.24240000  0.96280000  0.55240000  0.00000000
C        C    0.24240000  0.24240000  0.55240000  0.00000000
C        C    0.55240000  0.24240000  0.24240000  0.00000000
C        C    0.24240000  0.55240000  0.96280000  0.00000000
C        C    0.96280000  0.24240000  0.24240000  0.00000000
C        C    0.55240000  0.24240000  0.96280000  0.00000000
C        C    0.04580000  0.49980000  0.72720000  0.00000000
C        C    0.27280000  0.27280000  0.95420000  0.00000000
C        C    0.72720000  0.49980000  0.04580000  0.00000000
C        C    0.04580000  0.72720000  0.49980000  0.00000000
C        C    0.72720000  0.04580000  0.49980000  0.00000000
C        C    0.72720000  0.72720000  0.04580000  0.00000000
C        C    0.27280000  0.50020000  0.27280000  0.00000000
C        C    0.72720000  0.49980000  0.72720000  0.00000000
C        C    0.50020000  0.95420000  0.27280000  0.00000000
C        C    0.95420000  0.27280000  0.50020000  0.00000000
C        C    0.49980000  0.72720000  0.72720000  0.00000000
C        C    0.04580000  0.72720000  0.72720000  0.00000000
C        C    0.27280000  0.95420000  0.27280000  0.00000000
C        C    0.72720000  0.72720000  0.49980000  0.00000000
C        C    0.95420000  0.50020000  0.27280000  0.00000000
C        C    0.72720000  0.04580000  0.72720000  0.00000000
C        C    0.49980000  0.72720000  0.04580000  0.00000000
C        C    0.49980000  0.04580000  0.72720000  0.00000000
C        C    0.27280000  0.95420000  0.50020000  0.00000000
C        C    0.27280000  0.27280000  0.50020000  0.00000000
C        C    0.50020000  0.27280000  0.27280000  0.00000000
C        C    0.27280000  0.50020000  0.95420000  0.00000000
C        C    0.95420000  0.27280000  0.27280000  0.00000000
C        C    0.50020000  0.27280000  0.95420000  0.00000000
C        C    0.04970000  0.53810000  0.70610000  0.00000000
C        C    0.29390000  0.29390000  0.95030000  0.00000000
C        C    0.70610000  0.53810000  0.04970000  0.00000000
C        C    0.04970000  0.70610000  0.53810000  0.00000000
C        C    0.70610000  0.04970000  0.53810000  0.00000000
C        C    0.70610000  0.70610000  0.04970000  0.00000000
C        C    0.29390000  0.46190000  0.29390000  0.00000000
C        C    0.70610000  0.53810000  0.70610000  0.00000000
C        C    0.46190000  0.95030000  0.29390000  0.00000000
C        C    0.95030000  0.29390000  0.46190000  0.00000000
C        C    0.53810000  0.70610000  0.70610000  0.00000000
C        C    0.04970000  0.70610000  0.70610000  0.00000000
C        C    0.29390000  0.95030000  0.29390000  0.00000000
C        C    0.70610000  0.70610000  0.53810000  0.00000000
C        C    0.95030000  0.46190000  0.29390000  0.00000000
C        C    0.70610000  0.04970000  0.70610000  0.00000000
C        C    0.53810000  0.70610000  0.04970000  0.00000000
C        C    0.53810000  0.04970000  0.70610000  0.00000000
C        C    0.29390000  0.95030000  0.46190000  0.00000000
C        C    0.29390000  0.29390000  0.46190000  0.00000000
C        C    0.46190000  0.29390000  0.29390000  0.00000000
C        C    0.29390000  0.46190000  0.95030000  0.00000000
C        C    0.95030000  0.29390000  0.29390000  0.00000000
C        C    0.46190000  0.29390000  0.95030000  0.00000000
C        C    0.05520000  0.59120000  0.67680000  0.00000000
C        C    0.32320000  0.32320000  0.94480000  0.00000000
C        C    0.67680000  0.59120000  0.05520000  0.00000000
C        C    0.05520000  0.67680000  0.59120000  0.00000000
C        C    0.67680000  0.05520000  0.59120000  0.00000000
C        C    0.67680000  0.67680000  0.05520000  0.00000000
C        C    0.32320000  0.40880000  0.32320000  0.00000000
C        C    0.67680000  0.59120000  0.67680000  0.00000000
C        C    0.40880000  0.94480000  0.32320000  0.00000000
C        C    0.94480000  0.32320000  0.40880000  0.00000000
C        C    0.59120000  0.67680000  0.67680000  0.00000000
C        C    0.05520000  0.67680000  0.67680000  0.00000000
C        C    0.32320000  0.94480000  0.32320000  0.00000000
C        C    0.67680000  0.67680000  0.59120000  0.00000000
C        C    0.94480000  0.40880000  0.32320000  0.00000000
C        C    0.67680000  0.05520000  0.67680000  0.00000000
C        C    0.59120000  0.67680000  0.05520000  0.00000000
C        C    0.59120000  0.05520000  0.67680000  0.00000000
C        C    0.32320000  0.94480000  0.40880000  0.00000000
C        C    0.32320000  0.32320000  0.40880000  0.00000000
C        C    0.40880000  0.32320000  0.32320000  0.00000000
C        C    0.32320000  0.40880000  0.94480000  0.00000000
C        C    0.94480000  0.32320000  0.32320000  0.00000000
C        C    0.40880000  0.32320000  0.94480000  0.00000000
C        C    0.05590000  0.70110000  0.62150000  0.00000000
C        C    0.05590000  0.62150000  0.70110000  0.00000000
C        C    0.37850000  0.94410000  0.29890000  0.00000000
C        C    0.70110000  0.62150000  0.05590000  0.00000000
C        C    0.37850000  0.37850000  0.94410000  0.00000000
C        C    0.62150000  0.62150000  0.05590000  0.00000000
C        C    0.05590000  0.62150000  0.62150000  0.00000000
C        C    0.62150000  0.05590000  0.62150000  0.00000000
C        C    0.62150000  0.62150000  0.70110000  0.00000000
C        C    0.94410000  0.29890000  0.37850000  0.00000000
C        C    0.70110000  0.62150000  0.62150000  0.00000000
C        C    0.29890000  0.37850000  0.37850000  0.00000000
C        C    0.37850000  0.29890000  0.94410000  0.00000000
C        C    0.62150000  0.70110000  0.62150000  0.00000000
C        C    0.94410000  0.37850000  0.37850000  0.00000000
C        C    0.37850000  0.94410000  0.37850000  0.00000000
C        C    0.70110000  0.05590000  0.62150000  0.00000000
C        C    0.62150000  0.05590000  0.70110000  0.00000000
C        C    0.37850000  0.29890000  0.37850000  0.00000000
C        C    0.94410000  0.37850000  0.29890000  0.00000000
C        C    0.37850000  0.37850000  0.29890000  0.00000000
C        C    0.29890000  0.94410000  0.37850000  0.00000000
C        C    0.29890000  0.37850000  0.94410000  0.00000000
C        C    0.62150000  0.70110000  0.05590000  0.00000000
H        H    0.05720000  0.73680000  0.60300000  0.00000000
H        H    0.05720000  0.60300000  0.73680000  0.00000000
H        H    0.39700000  0.94280000  0.26320000  0.00000000
H        H    0.73680000  0.60300000  0.05720000  0.00000000
H        H    0.39700000  0.39700000  0.94280000  0.00000000
H        H    0.60300000  0.60300000  0.05720000  0.00000000
H        H    0.05720000  0.60300000  0.60300000  0.00000000
H        H    0.60300000  0.05720000  0.60300000  0.00000000
H        H    0.60300000  0.60300000  0.73680000  0.00000000
H        H    0.94280000  0.26320000  0.39700000  0.00000000
H        H    0.73680000  0.60300000  0.60300000  0.00000000
H        H    0.26320000  0.39700000  0.39700000  0.00000000
H        H    0.39700000  0.26320000  0.94280000  0.00000000
H        H    0.60300000  0.73680000  0.60300000  0.00000000
H        H    0.94280000  0.39700000  0.39700000  0.00000000
H        H    0.39700000  0.94280000  0.39700000  0.00000000
H        H    0.73680000  0.05720000  0.60300000  0.00000000
H        H    0.60300000  0.05720000  0.73680000  0.00000000
H        H    0.39700000  0.26320000  0.39700000  0.00000000
H        H    0.94280000  0.39700000  0.26320000  0.00000000
H        H    0.39700000  0.39700000  0.26320000  0.00000000
H        H    0.26320000  0.94280000  0.39700000  0.00000000
H        H    0.26320000  0.39700000  0.94280000  0.00000000
H        H    0.60300000  0.73680000  0.05720000  0.00000000
