data_ZIF-80

_cell_length_a  26.30700000
_cell_length_b  26.30700000
_cell_length_c  19.36100000
_cell_angle_alpha  90.00000000
_cell_angle_beta  90.00000000
_cell_angle_gamma  120.00000000


_symmetry_space_group_name_Hall ' P 1'
_symmetry_space_group_name_H-M  'P 1'
_symmetry_Int_Tables_number     1

loop_
_atom_site_label
_atom_site_type_symbol
_atom_site_fract_x
_atom_site_fract_y
_atom_site_fract_z
_atom_site_charge
Zn       Zn   0.56381000  0.66795000  0.90570000  0.00000000
Zn       Zn   0.66795000  0.10414000  0.40570000  0.00000000
Zn       Zn   0.56381000  0.89586000  0.59430000  0.00000000
Zn       Zn   0.89586000  0.56381000  0.09430000  0.00000000
Zn       Zn   0.10414000  0.66795000  0.59430000  0.00000000
Zn       Zn   0.89586000  0.33205000  0.09430000  0.00000000
Zn       Zn   0.66795000  0.56381000  0.40570000  0.00000000
Zn       Zn   0.10414000  0.43619000  0.59430000  0.00000000
Zn       Zn   0.56381000  0.66795000  0.59430000  0.00000000
Zn       Zn   0.43619000  0.10414000  0.40570000  0.00000000
Zn       Zn   0.33205000  0.89586000  0.59430000  0.00000000
Zn       Zn   0.43619000  0.33205000  0.40570000  0.00000000
Zn       Zn   0.89586000  0.56381000  0.40570000  0.00000000
Zn       Zn   0.10414000  0.66795000  0.90570000  0.00000000
Zn       Zn   0.89586000  0.33205000  0.40570000  0.00000000
Zn       Zn   0.66795000  0.56381000  0.09430000  0.00000000
Zn       Zn   0.33205000  0.89586000  0.90570000  0.00000000
Zn       Zn   0.56381000  0.89586000  0.90570000  0.00000000
Zn       Zn   0.33205000  0.43619000  0.90570000  0.00000000
Zn       Zn   0.43619000  0.33205000  0.09430000  0.00000000
Zn       Zn   0.33205000  0.43619000  0.59430000  0.00000000
Zn       Zn   0.43619000  0.10414000  0.09430000  0.00000000
Zn       Zn   0.66795000  0.10414000  0.09430000  0.00000000
Zn       Zn   0.10414000  0.43619000  0.90570000  0.00000000
N        N    0.56700000  0.74080000  0.94370000  0.00000000
N        N    0.74080000  0.17380000  0.44370000  0.00000000
N        N    0.56700000  0.82620000  0.55630000  0.00000000
N        N    0.82620000  0.56700000  0.05630000  0.00000000
N        N    0.17380000  0.74080000  0.55630000  0.00000000
N        N    0.82620000  0.25920000  0.05630000  0.00000000
N        N    0.74080000  0.56700000  0.44370000  0.00000000
N        N    0.17380000  0.43300000  0.55630000  0.00000000
N        N    0.56700000  0.74080000  0.55630000  0.00000000
N        N    0.43300000  0.17380000  0.44370000  0.00000000
N        N    0.25920000  0.82620000  0.55630000  0.00000000
N        N    0.43300000  0.25920000  0.44370000  0.00000000
N        N    0.82620000  0.56700000  0.44370000  0.00000000
N        N    0.17380000  0.74080000  0.94370000  0.00000000
N        N    0.82620000  0.25920000  0.44370000  0.00000000
N        N    0.74080000  0.56700000  0.05630000  0.00000000
N        N    0.25920000  0.82620000  0.94370000  0.00000000
N        N    0.56700000  0.82620000  0.94370000  0.00000000
N        N    0.25920000  0.43300000  0.94370000  0.00000000
N        N    0.43300000  0.25920000  0.05630000  0.00000000
N        N    0.25920000  0.43300000  0.55630000  0.00000000
N        N    0.43300000  0.17380000  0.05630000  0.00000000
N        N    0.74080000  0.17380000  0.05630000  0.00000000
N        N    0.17380000  0.43300000  0.94370000  0.00000000
C        C    0.56990000  0.75990000  0.01090000  0.00000000
C        C    0.75990000  0.19000000  0.51090000  0.00000000
C        C    0.56990000  0.81000000  0.48910000  0.00000000
C        C    0.81000000  0.56990000  0.98910000  0.00000000
C        C    0.19000000  0.75990000  0.48910000  0.00000000
C        C    0.81000000  0.24010000  0.98910000  0.00000000
C        C    0.75990000  0.56990000  0.51090000  0.00000000
C        C    0.19000000  0.43010000  0.48910000  0.00000000
C        C    0.56990000  0.75990000  0.48910000  0.00000000
C        C    0.43010000  0.19000000  0.51090000  0.00000000
C        C    0.24010000  0.81000000  0.48910000  0.00000000
C        C    0.43010000  0.24010000  0.51090000  0.00000000
C        C    0.81000000  0.56990000  0.51090000  0.00000000
C        C    0.19000000  0.75990000  0.01090000  0.00000000
C        C    0.81000000  0.24010000  0.51090000  0.00000000
C        C    0.75990000  0.56990000  0.98910000  0.00000000
C        C    0.24010000  0.81000000  0.01090000  0.00000000
C        C    0.56990000  0.81000000  0.01090000  0.00000000
C        C    0.24010000  0.43010000  0.01090000  0.00000000
C        C    0.43010000  0.24010000  0.98910000  0.00000000
C        C    0.24010000  0.43010000  0.48910000  0.00000000
C        C    0.43010000  0.19000000  0.98910000  0.00000000
C        C    0.75990000  0.19000000  0.98910000  0.00000000
C        C    0.19000000  0.43010000  0.01090000  0.00000000
Cl       Cl   0.57380000  0.72110000  0.07890000  0.00000000
Cl       Cl   0.72110000  0.14730000  0.57890000  0.00000000
Cl       Cl   0.57380000  0.85270000  0.42110000  0.00000000
Cl       Cl   0.85270000  0.57380000  0.92110000  0.00000000
Cl       Cl   0.14730000  0.72110000  0.42110000  0.00000000
Cl       Cl   0.85270000  0.27890000  0.92110000  0.00000000
Cl       Cl   0.72110000  0.57380000  0.57890000  0.00000000
Cl       Cl   0.14730000  0.42620000  0.42110000  0.00000000
Cl       Cl   0.57380000  0.72110000  0.42110000  0.00000000
Cl       Cl   0.42620000  0.14730000  0.57890000  0.00000000
Cl       Cl   0.27890000  0.85270000  0.42110000  0.00000000
Cl       Cl   0.42620000  0.27890000  0.57890000  0.00000000
Cl       Cl   0.85270000  0.57380000  0.57890000  0.00000000
Cl       Cl   0.14730000  0.72110000  0.07890000  0.00000000
Cl       Cl   0.85270000  0.27890000  0.57890000  0.00000000
Cl       Cl   0.72110000  0.57380000  0.92110000  0.00000000
Cl       Cl   0.27890000  0.85270000  0.07890000  0.00000000
Cl       Cl   0.57380000  0.85270000  0.07890000  0.00000000
Cl       Cl   0.27890000  0.42620000  0.07890000  0.00000000
Cl       Cl   0.42620000  0.27890000  0.92110000  0.00000000
Cl       Cl   0.27890000  0.42620000  0.42110000  0.00000000
Cl       Cl   0.42620000  0.14730000  0.92110000  0.00000000
Cl       Cl   0.72110000  0.14730000  0.92110000  0.00000000
Cl       Cl   0.14730000  0.42620000  0.07890000  0.00000000
N        N    0.62420000  0.66080000  0.96330000  0.00000000
N        N    0.66080000  0.03660000  0.46330000  0.00000000
N        N    0.62420000  0.96340000  0.53670000  0.00000000
N        N    0.96340000  0.62420000  0.03670000  0.00000000
N        N    0.03660000  0.66080000  0.53670000  0.00000000
N        N    0.96340000  0.33920000  0.03670000  0.00000000
N        N    0.66080000  0.62420000  0.46330000  0.00000000
N        N    0.03660000  0.37580000  0.53670000  0.00000000
N        N    0.62420000  0.66080000  0.53670000  0.00000000
N        N    0.37580000  0.03660000  0.46330000  0.00000000
N        N    0.33920000  0.96340000  0.53670000  0.00000000
N        N    0.37580000  0.33920000  0.46330000  0.00000000
N        N    0.96340000  0.62420000  0.46330000  0.00000000
N        N    0.03660000  0.66080000  0.96330000  0.00000000
N        N    0.96340000  0.33920000  0.46330000  0.00000000
N        N    0.66080000  0.62420000  0.03670000  0.00000000
N        N    0.33920000  0.96340000  0.96330000  0.00000000
N        N    0.62420000  0.96340000  0.96330000  0.00000000
N        N    0.33920000  0.37580000  0.96330000  0.00000000
N        N    0.37580000  0.33920000  0.03670000  0.00000000
N        N    0.33920000  0.37580000  0.53670000  0.00000000
N        N    0.37580000  0.03660000  0.03670000  0.00000000
N        N    0.66080000  0.03660000  0.03670000  0.00000000
N        N    0.03660000  0.37580000  0.96330000  0.00000000
C        C    0.68250000  0.70340000  0.97680000  0.00000000
C        C    0.70340000  0.02090000  0.47680000  0.00000000
C        C    0.68250000  0.97910000  0.52320000  0.00000000
C        C    0.97910000  0.68250000  0.02320000  0.00000000
C        C    0.02090000  0.70340000  0.52320000  0.00000000
C        C    0.97910000  0.29660000  0.02320000  0.00000000
C        C    0.70340000  0.68250000  0.47680000  0.00000000
C        C    0.02090000  0.31750000  0.52320000  0.00000000
C        C    0.68250000  0.70340000  0.52320000  0.00000000
C        C    0.31750000  0.02090000  0.47680000  0.00000000
C        C    0.29660000  0.97910000  0.52320000  0.00000000
C        C    0.31750000  0.29660000  0.47680000  0.00000000
C        C    0.97910000  0.68250000  0.47680000  0.00000000
C        C    0.02090000  0.70340000  0.97680000  0.00000000
C        C    0.97910000  0.29660000  0.47680000  0.00000000
C        C    0.70340000  0.68250000  0.02320000  0.00000000
C        C    0.29660000  0.97910000  0.97680000  0.00000000
C        C    0.68250000  0.97910000  0.97680000  0.00000000
C        C    0.29660000  0.31750000  0.97680000  0.00000000
C        C    0.31750000  0.29660000  0.02320000  0.00000000
C        C    0.29660000  0.31750000  0.52320000  0.00000000
C        C    0.31750000  0.02090000  0.02320000  0.00000000
C        C    0.70340000  0.02090000  0.02320000  0.00000000
C        C    0.02090000  0.31750000  0.97680000  0.00000000
Cl       Cl   0.71440000  0.77200000  0.94200000  0.00000000
Cl       Cl   0.77200000  0.05760000  0.44200000  0.00000000
Cl       Cl   0.71440000  0.94240000  0.55800000  0.00000000
Cl       Cl   0.94240000  0.71440000  0.05800000  0.00000000
Cl       Cl   0.05760000  0.77200000  0.55800000  0.00000000
Cl       Cl   0.94240000  0.22800000  0.05800000  0.00000000
Cl       Cl   0.77200000  0.71440000  0.44200000  0.00000000
Cl       Cl   0.05760000  0.28560000  0.55800000  0.00000000
Cl       Cl   0.71440000  0.77200000  0.55800000  0.00000000
Cl       Cl   0.28560000  0.05760000  0.44200000  0.00000000
Cl       Cl   0.22800000  0.94240000  0.55800000  0.00000000
Cl       Cl   0.28560000  0.22800000  0.44200000  0.00000000
Cl       Cl   0.94240000  0.71440000  0.44200000  0.00000000
Cl       Cl   0.05760000  0.77200000  0.94200000  0.00000000
Cl       Cl   0.94240000  0.22800000  0.44200000  0.00000000
Cl       Cl   0.77200000  0.71440000  0.05800000  0.00000000
Cl       Cl   0.22800000  0.94240000  0.94200000  0.00000000
Cl       Cl   0.71440000  0.94240000  0.94200000  0.00000000
Cl       Cl   0.22800000  0.28560000  0.94200000  0.00000000
Cl       Cl   0.28560000  0.22800000  0.05800000  0.00000000
Cl       Cl   0.22800000  0.28560000  0.55800000  0.00000000
Cl       Cl   0.28560000  0.05760000  0.05800000  0.00000000
Cl       Cl   0.77200000  0.05760000  0.05800000  0.00000000
Cl       Cl   0.05760000  0.28560000  0.94200000  0.00000000
N        N    0.48650000  0.59970000  0.93230000  0.00000000
N        N    0.59970000  0.11320000  0.43230000  0.00000000
N        N    0.48650000  0.88680000  0.56770000  0.00000000
N        N    0.88680000  0.48650000  0.06770000  0.00000000
N        N    0.11320000  0.59970000  0.56770000  0.00000000
N        N    0.88680000  0.40030000  0.06770000  0.00000000
N        N    0.59970000  0.48650000  0.43230000  0.00000000
N        N    0.11320000  0.51350000  0.56770000  0.00000000
N        N    0.48650000  0.59970000  0.56770000  0.00000000
N        N    0.51350000  0.11320000  0.43230000  0.00000000
N        N    0.40030000  0.88680000  0.56770000  0.00000000
N        N    0.51350000  0.40030000  0.43230000  0.00000000
N        N    0.88680000  0.48650000  0.43230000  0.00000000
N        N    0.11320000  0.59970000  0.93230000  0.00000000
N        N    0.88680000  0.40030000  0.43230000  0.00000000
N        N    0.59970000  0.48650000  0.06770000  0.00000000
N        N    0.40030000  0.88680000  0.93230000  0.00000000
N        N    0.48650000  0.88680000  0.93230000  0.00000000
N        N    0.40030000  0.51350000  0.93230000  0.00000000
N        N    0.51350000  0.40030000  0.06770000  0.00000000
N        N    0.40030000  0.51350000  0.56770000  0.00000000
N        N    0.51350000  0.11320000  0.06770000  0.00000000
N        N    0.59970000  0.11320000  0.06770000  0.00000000
N        N    0.11320000  0.51350000  0.93230000  0.00000000
C        C    0.44710000  0.60620000  0.97380000  0.00000000
C        C    0.60620000  0.15910000  0.47380000  0.00000000
C        C    0.44710000  0.84090000  0.52620000  0.00000000
C        C    0.84090000  0.44710000  0.02620000  0.00000000
C        C    0.15910000  0.60620000  0.52620000  0.00000000
C        C    0.84090000  0.39380000  0.02620000  0.00000000
C        C    0.60620000  0.44710000  0.47380000  0.00000000
C        C    0.15910000  0.55290000  0.52620000  0.00000000
C        C    0.44710000  0.60620000  0.52620000  0.00000000
C        C    0.55290000  0.15910000  0.47380000  0.00000000
C        C    0.39380000  0.84090000  0.52620000  0.00000000
C        C    0.55290000  0.39380000  0.47380000  0.00000000
C        C    0.84090000  0.44710000  0.47380000  0.00000000
C        C    0.15910000  0.60620000  0.97380000  0.00000000
C        C    0.84090000  0.39380000  0.47380000  0.00000000
C        C    0.60620000  0.44710000  0.02620000  0.00000000
C        C    0.39380000  0.84090000  0.97380000  0.00000000
C        C    0.44710000  0.84090000  0.97380000  0.00000000
C        C    0.39380000  0.55290000  0.97380000  0.00000000
C        C    0.55290000  0.39380000  0.02620000  0.00000000
C        C    0.39380000  0.55290000  0.52620000  0.00000000
C        C    0.55290000  0.15910000  0.02620000  0.00000000
C        C    0.60620000  0.15910000  0.02620000  0.00000000
C        C    0.15910000  0.55290000  0.97380000  0.00000000
H        H    0.45480000  0.64010000  0.99750000  0.00000000
H        H    0.64010000  0.18530000  0.49750000  0.00000000
H        H    0.45480000  0.81470000  0.50250000  0.00000000
H        H    0.81470000  0.45480000  0.00250000  0.00000000
H        H    0.18530000  0.64010000  0.50250000  0.00000000
H        H    0.81470000  0.35990000  0.00250000  0.00000000
H        H    0.64010000  0.45480000  0.49750000  0.00000000
H        H    0.18530000  0.54520000  0.50250000  0.00000000
H        H    0.45480000  0.64010000  0.50250000  0.00000000
H        H    0.54520000  0.18530000  0.49750000  0.00000000
H        H    0.35990000  0.81470000  0.50250000  0.00000000
H        H    0.54520000  0.35990000  0.49750000  0.00000000
H        H    0.81470000  0.45480000  0.49750000  0.00000000
H        H    0.18530000  0.64010000  0.99750000  0.00000000
H        H    0.81470000  0.35990000  0.49750000  0.00000000
H        H    0.64010000  0.45480000  0.00250000  0.00000000
H        H    0.35990000  0.81470000  0.99750000  0.00000000
H        H    0.45480000  0.81470000  0.99750000  0.00000000
H        H    0.35990000  0.54520000  0.99750000  0.00000000
H        H    0.54520000  0.35990000  0.00250000  0.00000000
H        H    0.35990000  0.54520000  0.50250000  0.00000000
H        H    0.54520000  0.18530000  0.00250000  0.00000000
H        H    0.64010000  0.18530000  0.00250000  0.00000000
H        H    0.18530000  0.54520000  0.99750000  0.00000000
O        O    0.44500000  0.45980000  0.86990000  0.00000000
O        O    0.45980000  0.01480000  0.36990000  0.00000000
O        O    0.44500000  0.98520000  0.63010000  0.00000000
O        O    0.98520000  0.44500000  0.13010000  0.00000000
O        O    0.01480000  0.45980000  0.63010000  0.00000000
O        O    0.98520000  0.54020000  0.13010000  0.00000000
O        O    0.45980000  0.44500000  0.36990000  0.00000000
O        O    0.01480000  0.55500000  0.63010000  0.00000000
O        O    0.44500000  0.45980000  0.63010000  0.00000000
O        O    0.55500000  0.01480000  0.36990000  0.00000000
O        O    0.54020000  0.98520000  0.63010000  0.00000000
O        O    0.55500000  0.54020000  0.36990000  0.00000000
O        O    0.98520000  0.44500000  0.36990000  0.00000000
O        O    0.01480000  0.45980000  0.86990000  0.00000000
O        O    0.98520000  0.54020000  0.36990000  0.00000000
O        O    0.45980000  0.44500000  0.13010000  0.00000000
O        O    0.54020000  0.98520000  0.86990000  0.00000000
O        O    0.44500000  0.98520000  0.86990000  0.00000000
O        O    0.54020000  0.55500000  0.86990000  0.00000000
O        O    0.55500000  0.54020000  0.13010000  0.00000000
O        O    0.54020000  0.55500000  0.63010000  0.00000000
O        O    0.55500000  0.01480000  0.13010000  0.00000000
O        O    0.45980000  0.01480000  0.13010000  0.00000000
O        O    0.01480000  0.55500000  0.86990000  0.00000000
N        N    0.59130000  0.67490000  0.81010000  0.00000000
N        N    0.67490000  0.08360000  0.31010000  0.00000000
N        N    0.59130000  0.91640000  0.68990000  0.00000000
N        N    0.91640000  0.59130000  0.18990000  0.00000000
N        N    0.08360000  0.67490000  0.68990000  0.00000000
N        N    0.91640000  0.32510000  0.18990000  0.00000000
N        N    0.67490000  0.59130000  0.31010000  0.00000000
N        N    0.08360000  0.40870000  0.68990000  0.00000000
N        N    0.59130000  0.67490000  0.68990000  0.00000000
N        N    0.40870000  0.08360000  0.31010000  0.00000000
N        N    0.32510000  0.91640000  0.68990000  0.00000000
N        N    0.40870000  0.32510000  0.31010000  0.00000000
N        N    0.91640000  0.59130000  0.31010000  0.00000000
N        N    0.08360000  0.67490000  0.81010000  0.00000000
N        N    0.91640000  0.32510000  0.31010000  0.00000000
N        N    0.67490000  0.59130000  0.18990000  0.00000000
N        N    0.32510000  0.91640000  0.81010000  0.00000000
N        N    0.59130000  0.91640000  0.81010000  0.00000000
N        N    0.32510000  0.40870000  0.81010000  0.00000000
N        N    0.40870000  0.32510000  0.18990000  0.00000000
N        N    0.32510000  0.40870000  0.68990000  0.00000000
N        N    0.40870000  0.08360000  0.18990000  0.00000000
N        N    0.67490000  0.08360000  0.18990000  0.00000000
N        N    0.08360000  0.40870000  0.81010000  0.00000000
C        C    0.64160000  0.67710000  0.78520000  0.00000000
C        C    0.67710000  0.03550000  0.28520000  0.00000000
C        C    0.64160000  0.96450000  0.71480000  0.00000000
C        C    0.96450000  0.64160000  0.21480000  0.00000000
C        C    0.03550000  0.67710000  0.71480000  0.00000000
C        C    0.96450000  0.32290000  0.21480000  0.00000000
C        C    0.67710000  0.64160000  0.28520000  0.00000000
C        C    0.03550000  0.35840000  0.71480000  0.00000000
C        C    0.64160000  0.67710000  0.71480000  0.00000000
C        C    0.35840000  0.03550000  0.28520000  0.00000000
C        C    0.32290000  0.96450000  0.71480000  0.00000000
C        C    0.35840000  0.32290000  0.28520000  0.00000000
C        C    0.96450000  0.64160000  0.28520000  0.00000000
C        C    0.03550000  0.67710000  0.78520000  0.00000000
C        C    0.96450000  0.32290000  0.28520000  0.00000000
C        C    0.67710000  0.64160000  0.21480000  0.00000000
C        C    0.32290000  0.96450000  0.78520000  0.00000000
C        C    0.64160000  0.96450000  0.78520000  0.00000000
C        C    0.32290000  0.35840000  0.78520000  0.00000000
C        C    0.35840000  0.32290000  0.21480000  0.00000000
C        C    0.32290000  0.35840000  0.71480000  0.00000000
C        C    0.35840000  0.03550000  0.21480000  0.00000000
C        C    0.67710000  0.03550000  0.21480000  0.00000000
C        C    0.03550000  0.35840000  0.78520000  0.00000000
H        H    0.67140000  0.67850000  0.81260000  0.00000000
H        H    0.67850000  0.00710000  0.31260000  0.00000000
H        H    0.67140000  0.99290000  0.68740000  0.00000000
H        H    0.99290000  0.67140000  0.18740000  0.00000000
H        H    0.00710000  0.67850000  0.68740000  0.00000000
H        H    0.99290000  0.32150000  0.18740000  0.00000000
H        H    0.67850000  0.67140000  0.31260000  0.00000000
H        H    0.00710000  0.32860000  0.68740000  0.00000000
H        H    0.67140000  0.67850000  0.68740000  0.00000000
H        H    0.32860000  0.00710000  0.31260000  0.00000000
H        H    0.32150000  0.99290000  0.68740000  0.00000000
H        H    0.32860000  0.32150000  0.31260000  0.00000000
H        H    0.99290000  0.67140000  0.31260000  0.00000000
H        H    0.00710000  0.67850000  0.81260000  0.00000000
H        H    0.99290000  0.32150000  0.31260000  0.00000000
H        H    0.67850000  0.67140000  0.18740000  0.00000000
H        H    0.32150000  0.99290000  0.81260000  0.00000000
H        H    0.67140000  0.99290000  0.81260000  0.00000000
H        H    0.32150000  0.32860000  0.81260000  0.00000000
H        H    0.32860000  0.32150000  0.18740000  0.00000000
H        H    0.32150000  0.32860000  0.68740000  0.00000000
H        H    0.32860000  0.00710000  0.18740000  0.00000000
H        H    0.67850000  0.00710000  0.18740000  0.00000000
H        H    0.00710000  0.32860000  0.81260000  0.00000000
O        O    0.48850000  0.67370000  0.80980000  0.00000000
O        O    0.67370000  0.18520000  0.30980000  0.00000000
O        O    0.48850000  0.81480000  0.69020000  0.00000000
O        O    0.81480000  0.48850000  0.19020000  0.00000000
O        O    0.18520000  0.67370000  0.69020000  0.00000000
O        O    0.81480000  0.32630000  0.19020000  0.00000000
O        O    0.67370000  0.48850000  0.30980000  0.00000000
O        O    0.18520000  0.51150000  0.69020000  0.00000000
O        O    0.48850000  0.67370000  0.69020000  0.00000000
O        O    0.51150000  0.18520000  0.30980000  0.00000000
O        O    0.32630000  0.81480000  0.69020000  0.00000000
O        O    0.51150000  0.32630000  0.30980000  0.00000000
O        O    0.81480000  0.48850000  0.30980000  0.00000000
O        O    0.18520000  0.67370000  0.80980000  0.00000000
O        O    0.81480000  0.32630000  0.30980000  0.00000000
O        O    0.67370000  0.48850000  0.19020000  0.00000000
O        O    0.32630000  0.81480000  0.80980000  0.00000000
O        O    0.48850000  0.81480000  0.80980000  0.00000000
O        O    0.32630000  0.51150000  0.80980000  0.00000000
O        O    0.51150000  0.32630000  0.19020000  0.00000000
O        O    0.32630000  0.51150000  0.69020000  0.00000000
O        O    0.51150000  0.18520000  0.19020000  0.00000000
O        O    0.67370000  0.18520000  0.19020000  0.00000000
O        O    0.18520000  0.51150000  0.80980000  0.00000000
C        C    0.56460000  0.78230000  0.59800000  0.00000000
C        C    0.21770000  0.78230000  0.59800000  0.00000000
C        C    0.43540000  0.21770000  0.40200000  0.00000000
C        C    0.78230000  0.56460000  0.40200000  0.00000000
C        C    0.78230000  0.21770000  0.40200000  0.00000000
C        C    0.78230000  0.56460000  0.09800000  0.00000000
C        C    0.21770000  0.78230000  0.90200000  0.00000000
C        C    0.56460000  0.78230000  0.90200000  0.00000000
C        C    0.21770000  0.43540000  0.59800000  0.00000000
C        C    0.43540000  0.21770000  0.09800000  0.00000000
C        C    0.78230000  0.21770000  0.09800000  0.00000000
C        C    0.21770000  0.43540000  0.90200000  0.00000000
H        H    0.56200000  0.78100000  0.64640000  0.00000000
H        H    0.21900000  0.78100000  0.64640000  0.00000000
H        H    0.43800000  0.21900000  0.35360000  0.00000000
H        H    0.78100000  0.56200000  0.35360000  0.00000000
H        H    0.78100000  0.21900000  0.35360000  0.00000000
H        H    0.78100000  0.56200000  0.14640000  0.00000000
H        H    0.21900000  0.78100000  0.85360000  0.00000000
H        H    0.56200000  0.78100000  0.85360000  0.00000000
H        H    0.21900000  0.43800000  0.64640000  0.00000000
H        H    0.43800000  0.21900000  0.14640000  0.00000000
H        H    0.78100000  0.21900000  0.14640000  0.00000000
H        H    0.21900000  0.43800000  0.85360000  0.00000000
C        C    0.61000000  0.00000000  0.50000000  0.00000000
C        C    0.61000000  0.61000000  0.50000000  0.00000000
C        C    0.39000000  0.00000000  0.50000000  0.00000000
C        C    0.00000000  0.61000000  0.50000000  0.00000000
C        C    0.00000000  0.61000000  0.00000000  0.00000000
C        C    0.00000000  0.39000000  0.50000000  0.00000000
C        C    0.61000000  0.61000000  0.00000000  0.00000000
C        C    0.39000000  0.39000000  0.00000000  0.00000000
C        C    0.39000000  0.39000000  0.50000000  0.00000000
C        C    0.39000000  0.00000000  0.00000000  0.00000000
C        C    0.61000000  0.00000000  0.00000000  0.00000000
C        C    0.00000000  0.39000000  0.00000000  0.00000000
H        H    0.57470000  0.00000000  0.50000000  0.00000000
H        H    0.57470000  0.57470000  0.50000000  0.00000000
H        H    0.42530000  0.00000000  0.50000000  0.00000000
H        H    0.00000000  0.57470000  0.50000000  0.00000000
H        H    0.00000000  0.57470000  0.00000000  0.00000000
H        H    0.00000000  0.42530000  0.50000000  0.00000000
H        H    0.57470000  0.57470000  0.00000000  0.00000000
H        H    0.42530000  0.42530000  0.00000000  0.00000000
H        H    0.42530000  0.42530000  0.50000000  0.00000000
H        H    0.42530000  0.00000000  0.00000000  0.00000000
H        H    0.57470000  0.00000000  0.00000000  0.00000000
H        H    0.00000000  0.42530000  0.00000000  0.00000000
C        C    0.90700000  0.45350000  0.08700000  0.00000000
C        C    0.09300000  0.54650000  0.58700000  0.00000000
C        C    0.54650000  0.09300000  0.41300000  0.00000000
C        C    0.45350000  0.90700000  0.58700000  0.00000000
C        C    0.54650000  0.45350000  0.41300000  0.00000000
C        C    0.90700000  0.45350000  0.41300000  0.00000000
C        C    0.45350000  0.90700000  0.91300000  0.00000000
C        C    0.45350000  0.54650000  0.91300000  0.00000000
C        C    0.54650000  0.45350000  0.08700000  0.00000000
C        C    0.45350000  0.54650000  0.58700000  0.00000000
C        C    0.54650000  0.09300000  0.08700000  0.00000000
C        C    0.09300000  0.54650000  0.91300000  0.00000000
N        N    0.96300000  0.48150000  0.12300000  0.00000000
N        N    0.03700000  0.51850000  0.62300000  0.00000000
N        N    0.51850000  0.03700000  0.37700000  0.00000000
N        N    0.48150000  0.96300000  0.62300000  0.00000000
N        N    0.51850000  0.48150000  0.37700000  0.00000000
N        N    0.96300000  0.48150000  0.37700000  0.00000000
N        N    0.48150000  0.96300000  0.87700000  0.00000000
N        N    0.48150000  0.51850000  0.87700000  0.00000000
N        N    0.51850000  0.48150000  0.12300000  0.00000000
N        N    0.48150000  0.51850000  0.62300000  0.00000000
N        N    0.51850000  0.03700000  0.12300000  0.00000000
N        N    0.03700000  0.51850000  0.87700000  0.00000000
C        C    0.56600000  0.67620000  0.75000000  0.00000000
C        C    0.88980000  0.56600000  0.25000000  0.00000000
C        C    0.11020000  0.67620000  0.75000000  0.00000000
C        C    0.88980000  0.32380000  0.25000000  0.00000000
C        C    0.67620000  0.56600000  0.25000000  0.00000000
C        C    0.32380000  0.88980000  0.75000000  0.00000000
C        C    0.56600000  0.88980000  0.75000000  0.00000000
C        C    0.43400000  0.32380000  0.25000000  0.00000000
C        C    0.32380000  0.43400000  0.75000000  0.00000000
C        C    0.43400000  0.11020000  0.25000000  0.00000000
C        C    0.67620000  0.11020000  0.25000000  0.00000000
C        C    0.11020000  0.43400000  0.75000000  0.00000000
N        N    0.50790000  0.67420000  0.75000000  0.00000000
N        N    0.83370000  0.50790000  0.25000000  0.00000000
N        N    0.16630000  0.67420000  0.75000000  0.00000000
N        N    0.83370000  0.32580000  0.25000000  0.00000000
N        N    0.67420000  0.50790000  0.25000000  0.00000000
N        N    0.32580000  0.83370000  0.75000000  0.00000000
N        N    0.50790000  0.83370000  0.75000000  0.00000000
N        N    0.49210000  0.32580000  0.25000000  0.00000000
N        N    0.32580000  0.49210000  0.75000000  0.00000000
N        N    0.49210000  0.16630000  0.25000000  0.00000000
N        N    0.67420000  0.16630000  0.25000000  0.00000000
N        N    0.16630000  0.49210000  0.75000000  0.00000000
