data_ZIF-9

_cell_length_a  22.94370000
_cell_length_b  22.94370000
_cell_length_c  15.74700000
_cell_angle_alpha  90.00000000
_cell_angle_beta  90.00000000
_cell_angle_gamma  120.00000000


_symmetry_space_group_name_Hall ' P 1'
_symmetry_space_group_name_H-M  'P 1'
_symmetry_Int_Tables_number     1

loop_
_atom_site_label
_atom_site_type_symbol
_atom_site_fract_x
_atom_site_fract_y
_atom_site_fract_z
_atom_site_charge
C        C    0.63393333  0.99606667  0.49106667  0.00000000
C        C    0.30453333  0.96726667  0.84226667  0.00000000
C        C    0.30060000  0.32940000  0.82440000  0.00000000
C        C    0.36606667  0.00393333  0.50893333  0.00000000
C        C    0.63786667  0.63393333  0.50893333  0.00000000
C        C    0.67060000  0.97120000  0.82440000  0.00000000
C        C    0.97120000  0.30060000  0.17560000  0.00000000
C        C    0.96726667  0.66273333  0.15773333  0.00000000
C        C    0.69940000  0.67060000  0.17560000  0.00000000
C        C    0.33726667  0.30453333  0.15773333  0.00000000
C        C    0.69546667  0.03273333  0.15773333  0.00000000
C        C    0.66273333  0.69546667  0.84226667  0.00000000
C        C    0.32940000  0.02880000  0.17560000  0.00000000
C        C    0.00393333  0.63786667  0.49106667  0.00000000
C        C    0.02880000  0.69940000  0.82440000  0.00000000
C        C    0.99606667  0.36213333  0.50893333  0.00000000
C        C    0.03273333  0.33726667  0.84226667  0.00000000
C        C    0.36213333  0.36606667  0.49106667  0.00000000
H        H    0.59563333  0.99996667  0.49526667  0.00000000
H        H    0.26233333  0.92896667  0.83806667  0.00000000
H        H    0.26230000  0.33330000  0.82860000  0.00000000
H        H    0.40436667  0.00003333  0.50473333  0.00000000
H        H    0.59566667  0.59563333  0.50473333  0.00000000
H        H    0.66670000  0.92900000  0.82860000  0.00000000
H        H    0.92900000  0.26230000  0.17140000  0.00000000
H        H    0.92896667  0.66663333  0.16193333  0.00000000
H        H    0.73770000  0.66670000  0.17140000  0.00000000
H        H    0.33336667  0.26233333  0.16193333  0.00000000
H        H    0.73766667  0.07103333  0.16193333  0.00000000
H        H    0.66663333  0.73766667  0.83806667  0.00000000
H        H    0.33330000  0.07100000  0.17140000  0.00000000
H        H    0.00003333  0.59566667  0.49526667  0.00000000
H        H    0.07100000  0.73770000  0.82860000  0.00000000
H        H    0.99996667  0.40433333  0.50473333  0.00000000
H        H    0.07103333  0.33336667  0.83806667  0.00000000
H        H    0.40433333  0.40436667  0.49526667  0.00000000
C        C    0.72443333  0.00336667  0.44326667  0.00000000
C        C    0.38773333  0.05776667  0.89006667  0.00000000
C        C    0.39110000  0.33670000  0.77660000  0.00000000
C        C    0.27556667  0.99663333  0.55673333  0.00000000
C        C    0.72106667  0.72443333  0.55673333  0.00000000
C        C    0.66330000  0.05440000  0.77660000  0.00000000
C        C    0.05440000  0.39110000  0.22340000  0.00000000
C        C    0.05776667  0.67003333  0.10993333  0.00000000
C        C    0.60890000  0.66330000  0.22340000  0.00000000
C        C    0.32996667  0.38773333  0.10993333  0.00000000
C        C    0.61226667  0.94223333  0.10993333  0.00000000
C        C    0.67003333  0.61226667  0.89006667  0.00000000
C        C    0.33670000  0.94560000  0.22340000  0.00000000
C        C    0.99663333  0.72106667  0.44326667  0.00000000
C        C    0.94560000  0.60890000  0.77660000  0.00000000
C        C    0.00336667  0.27893333  0.55673333  0.00000000
C        C    0.94223333  0.32996667  0.89006667  0.00000000
C        C    0.27893333  0.27556667  0.44326667  0.00000000
C        C    0.78033333  0.01426667  0.39526667  0.00000000
C        C    0.43273333  0.11366667  0.93806667  0.00000000
C        C    0.44700000  0.34760000  0.72860000  0.00000000
C        C    0.21966667  0.98573333  0.60473333  0.00000000
C        C    0.76606667  0.78033333  0.60473333  0.00000000
C        C    0.65240000  0.09940000  0.72860000  0.00000000
C        C    0.09940000  0.44700000  0.27140000  0.00000000
C        C    0.11366667  0.68093333  0.06193333  0.00000000
C        C    0.55300000  0.65240000  0.27140000  0.00000000
C        C    0.31906667  0.43273333  0.06193333  0.00000000
C        C    0.56726667  0.88633333  0.06193333  0.00000000
C        C    0.68093333  0.56726667  0.93806667  0.00000000
C        C    0.34760000  0.90060000  0.27140000  0.00000000
C        C    0.98573333  0.76606667  0.39526667  0.00000000
C        C    0.90060000  0.55300000  0.72860000  0.00000000
C        C    0.01426667  0.23393333  0.60473333  0.00000000
C        C    0.88633333  0.31906667  0.93806667  0.00000000
C        C    0.23393333  0.21966667  0.39526667  0.00000000
H        H    0.78913333  0.03416667  0.34176667  0.00000000
H        H    0.42163333  0.12246667  0.99156667  0.00000000
H        H    0.45580000  0.36750000  0.67510000  0.00000000
H        H    0.21086667  0.96583333  0.65823333  0.00000000
H        H    0.75496667  0.78913333  0.65823333  0.00000000
H        H    0.63250000  0.08830000  0.67510000  0.00000000
H        H    0.08830000  0.45580000  0.32490000  0.00000000
H        H    0.12246667  0.70083333  0.00843333  0.00000000
H        H    0.54420000  0.63250000  0.32490000  0.00000000
H        H    0.29916667  0.42163333  0.00843333  0.00000000
H        H    0.57836667  0.87753333  0.00843333  0.00000000
H        H    0.70083333  0.57836667  0.99156667  0.00000000
H        H    0.36750000  0.91170000  0.32490000  0.00000000
H        H    0.96583333  0.75496667  0.34176667  0.00000000
H        H    0.91170000  0.54420000  0.67510000  0.00000000
H        H    0.03416667  0.24503333  0.65823333  0.00000000
H        H    0.87753333  0.29916667  0.99156667  0.00000000
H        H    0.24503333  0.21086667  0.34176667  0.00000000
C        C    0.82093333  0.99366667  0.43216667  0.00000000
C        C    0.49393333  0.15426667  0.90116667  0.00000000
C        C    0.48760000  0.32700000  0.76550000  0.00000000
C        C    0.17906667  0.00633333  0.56783333  0.00000000
C        C    0.82726667  0.82093333  0.56783333  0.00000000
C        C    0.67300000  0.16060000  0.76550000  0.00000000
C        C    0.16060000  0.48760000  0.23450000  0.00000000
C        C    0.15426667  0.66033333  0.09883333  0.00000000
C        C    0.51240000  0.67300000  0.23450000  0.00000000
C        C    0.33966667  0.49393333  0.09883333  0.00000000
C        C    0.50606667  0.84573333  0.09883333  0.00000000
C        C    0.66033333  0.50606667  0.90116667  0.00000000
C        C    0.32700000  0.83940000  0.23450000  0.00000000
C        C    0.00633333  0.82726667  0.43216667  0.00000000
C        C    0.83940000  0.51240000  0.76550000  0.00000000
C        C    0.99366667  0.17273333  0.56783333  0.00000000
C        C    0.84573333  0.33966667  0.90116667  0.00000000
C        C    0.17273333  0.17906667  0.43216667  0.00000000
H        H    0.85943333  0.00126667  0.40316667  0.00000000
H        H    0.52483333  0.19276667  0.93016667  0.00000000
H        H    0.52610000  0.33460000  0.73650000  0.00000000
H        H    0.14056667  0.99873333  0.59683333  0.00000000
H        H    0.85816667  0.85943333  0.59683333  0.00000000
H        H    0.66540000  0.19150000  0.73650000  0.00000000
H        H    0.19150000  0.52610000  0.26350000  0.00000000
H        H    0.19276667  0.66793333  0.06983333  0.00000000
H        H    0.47390000  0.66540000  0.26350000  0.00000000
H        H    0.33206667  0.52483333  0.06983333  0.00000000
H        H    0.47516667  0.80723333  0.06983333  0.00000000
H        H    0.66793333  0.47516667  0.93016667  0.00000000
H        H    0.33460000  0.80850000  0.26350000  0.00000000
H        H    0.99873333  0.85816667  0.40316667  0.00000000
H        H    0.80850000  0.47390000  0.73650000  0.00000000
H        H    0.00126667  0.14183333  0.59683333  0.00000000
H        H    0.80723333  0.33206667  0.93016667  0.00000000
H        H    0.14183333  0.14056667  0.40316667  0.00000000
C        C    0.52533333  0.05926667  0.32726667  0.00000000
C        C    0.13273333  0.85866667  0.00606667  0.00000000
C        C    0.19200000  0.39260000  0.66060000  0.00000000
C        C    0.47466667  0.94073333  0.67273333  0.00000000
C        C    0.46606667  0.52533333  0.67273333  0.00000000
C        C    0.60740000  0.79940000  0.66060000  0.00000000
C        C    0.79940000  0.19200000  0.33940000  0.00000000
C        C    0.85866667  0.72593333  0.99393333  0.00000000
C        C    0.80800000  0.60740000  0.33940000  0.00000000
C        C    0.27406667  0.13273333  0.99393333  0.00000000
C        C    0.86726667  0.14133333  0.99393333  0.00000000
C        C    0.72593333  0.86726667  0.00606667  0.00000000
C        C    0.39260000  0.20060000  0.33940000  0.00000000
C        C    0.94073333  0.46606667  0.32726667  0.00000000
C        C    0.20060000  0.80800000  0.66060000  0.00000000
C        C    0.05926667  0.53393333  0.67273333  0.00000000
C        C    0.14133333  0.27406667  0.00606667  0.00000000
C        C    0.53393333  0.47466667  0.32726667  0.00000000
H        H    0.51013333  0.03256667  0.27886667  0.00000000
H        H    0.14423333  0.84346667  0.05446667  0.00000000
H        H    0.17680000  0.36590000  0.61220000  0.00000000
H        H    0.48986667  0.96743333  0.72113333  0.00000000
H        H    0.47756667  0.51013333  0.72113333  0.00000000
H        H    0.63410000  0.81090000  0.61220000  0.00000000
H        H    0.81090000  0.17680000  0.38780000  0.00000000
H        H    0.84346667  0.69923333  0.94553333  0.00000000
H        H    0.82320000  0.63410000  0.38780000  0.00000000
H        H    0.30076667  0.14423333  0.94553333  0.00000000
H        H    0.85576667  0.15653333  0.94553333  0.00000000
H        H    0.69923333  0.85576667  0.05446667  0.00000000
H        H    0.36590000  0.18910000  0.38780000  0.00000000
H        H    0.96743333  0.47756667  0.27886667  0.00000000
H        H    0.18910000  0.82320000  0.61220000  0.00000000
H        H    0.03256667  0.52243333  0.72113333  0.00000000
H        H    0.15653333  0.30076667  0.05446667  0.00000000
H        H    0.52243333  0.48986667  0.27886667  0.00000000
C        C    0.58983333  0.11886667  0.42896667  0.00000000
C        C    0.13763333  0.92316667  0.90436667  0.00000000
C        C    0.25650000  0.45220000  0.76230000  0.00000000
C        C    0.41016667  0.88113333  0.57103333  0.00000000
C        C    0.47096667  0.58983333  0.57103333  0.00000000
C        C    0.54780000  0.80430000  0.76230000  0.00000000
C        C    0.80430000  0.25650000  0.23770000  0.00000000
C        C    0.92316667  0.78553333  0.09563333  0.00000000
C        C    0.74350000  0.54780000  0.23770000  0.00000000
C        C    0.21446667  0.13763333  0.09563333  0.00000000
C        C    0.86236667  0.07683333  0.09563333  0.00000000
C        C    0.78553333  0.86236667  0.90436667  0.00000000
C        C    0.45220000  0.19570000  0.23770000  0.00000000
C        C    0.88113333  0.47096667  0.42896667  0.00000000
C        C    0.19570000  0.74350000  0.76230000  0.00000000
C        C    0.11886667  0.52903333  0.57103333  0.00000000
C        C    0.07683333  0.21446667  0.90436667  0.00000000
C        C    0.52903333  0.41016667  0.42896667  0.00000000
C        C    0.64093333  0.15366667  0.48666667  0.00000000
C        C    0.15393333  0.97426667  0.84666667  0.00000000
C        C    0.30760000  0.48700000  0.82000000  0.00000000
C        C    0.35906667  0.84633333  0.51333333  0.00000000
C        C    0.48726667  0.64093333  0.51333333  0.00000000
C        C    0.51300000  0.82060000  0.82000000  0.00000000
C        C    0.82060000  0.30760000  0.18000000  0.00000000
C        C    0.97426667  0.82033333  0.15333333  0.00000000
C        C    0.69240000  0.51300000  0.18000000  0.00000000
C        C    0.17966667  0.15393333  0.15333333  0.00000000
C        C    0.84606667  0.02573333  0.15333333  0.00000000
C        C    0.82033333  0.84606667  0.84666667  0.00000000
C        C    0.48700000  0.17940000  0.18000000  0.00000000
C        C    0.84633333  0.48726667  0.48666667  0.00000000
C        C    0.17940000  0.69240000  0.82000000  0.00000000
C        C    0.15366667  0.51273333  0.51333333  0.00000000
C        C    0.02573333  0.17966667  0.84666667  0.00000000
C        C    0.51273333  0.35906667  0.48666667  0.00000000
H        H    0.68113333  0.15296667  0.48376667  0.00000000
H        H    0.19483333  0.01446667  0.84956667  0.00000000
H        H    0.34780000  0.48630000  0.81710000  0.00000000
H        H    0.31886667  0.84703333  0.51623333  0.00000000
H        H    0.52816667  0.68113333  0.51623333  0.00000000
H        H    0.51370000  0.86150000  0.81710000  0.00000000
H        H    0.86150000  0.34780000  0.18290000  0.00000000
H        H    0.01446667  0.81963333  0.15043333  0.00000000
H        H    0.65220000  0.51370000  0.18290000  0.00000000
H        H    0.18036667  0.19483333  0.15043333  0.00000000
H        H    0.80516667  0.98553333  0.15043333  0.00000000
H        H    0.81963333  0.80516667  0.84956667  0.00000000
H        H    0.48630000  0.13850000  0.18290000  0.00000000
H        H    0.84703333  0.52816667  0.48376667  0.00000000
H        H    0.13850000  0.65220000  0.81710000  0.00000000
H        H    0.15296667  0.47183333  0.51623333  0.00000000
H        H    0.98553333  0.18036667  0.84956667  0.00000000
H        H    0.47183333  0.31886667  0.48376667  0.00000000
C        C    0.63033333  0.18946667  0.54856667  0.00000000
C        C    0.10753333  0.96366667  0.78476667  0.00000000
C        C    0.29700000  0.52280000  0.88190000  0.00000000
C        C    0.36966667  0.81053333  0.45143333  0.00000000
C        C    0.44086667  0.63033333  0.45143333  0.00000000
C        C    0.47720000  0.77420000  0.88190000  0.00000000
C        C    0.77420000  0.29700000  0.11810000  0.00000000
C        C    0.96366667  0.85613333  0.21523333  0.00000000
C        C    0.70300000  0.47720000  0.11810000  0.00000000
C        C    0.14386667  0.10753333  0.21523333  0.00000000
C        C    0.89246667  0.03633333  0.21523333  0.00000000
C        C    0.85613333  0.89246667  0.78476667  0.00000000
C        C    0.52280000  0.22580000  0.11810000  0.00000000
C        C    0.81053333  0.44086667  0.54856667  0.00000000
C        C    0.22580000  0.70300000  0.88190000  0.00000000
C        C    0.18946667  0.55913333  0.45143333  0.00000000
C        C    0.03633333  0.14386667  0.78476667  0.00000000
C        C    0.55913333  0.36966667  0.54856667  0.00000000
H        H    0.66423333  0.21426667  0.58776667  0.00000000
H        H    0.11663333  0.99756667  0.74556667  0.00000000
H        H    0.33090000  0.54760000  0.92110000  0.00000000
H        H    0.33576667  0.78573333  0.41223333  0.00000000
H        H    0.44996667  0.66423333  0.41223333  0.00000000
H        H    0.45240000  0.78330000  0.92110000  0.00000000
H        H    0.78330000  0.33090000  0.07890000  0.00000000
H        H    0.99756667  0.88093333  0.25443333  0.00000000
H        H    0.66910000  0.45240000  0.07890000  0.00000000
H        H    0.11906667  0.11663333  0.25443333  0.00000000
H        H    0.88336667  0.00243333  0.25443333  0.00000000
H        H    0.88093333  0.88336667  0.74556667  0.00000000
H        H    0.54760000  0.21670000  0.07890000  0.00000000
H        H    0.78573333  0.44996667  0.58776667  0.00000000
H        H    0.21670000  0.66910000  0.92110000  0.00000000
H        H    0.21426667  0.55003333  0.41223333  0.00000000
H        H    0.00243333  0.11906667  0.74556667  0.00000000
H        H    0.55003333  0.33576667  0.58776667  0.00000000
C        C    0.74333333  0.19576667  0.23276667  0.00000000
C        C    0.21423333  0.07666667  0.10056667  0.00000000
C        C    0.41000000  0.52910000  0.56610000  0.00000000
C        C    0.25666667  0.80423333  0.76723333  0.00000000
C        C    0.54756667  0.74333333  0.76723333  0.00000000
C        C    0.47090000  0.88090000  0.56610000  0.00000000
C        C    0.88090000  0.41000000  0.43390000  0.00000000
C        C    0.07666667  0.86243333  0.89943333  0.00000000
C        C    0.59000000  0.47090000  0.43390000  0.00000000
C        C    0.13756667  0.21423333  0.89943333  0.00000000
C        C    0.78576667  0.92333333  0.89943333  0.00000000
C        C    0.86243333  0.78576667  0.10056667  0.00000000
C        C    0.52910000  0.11910000  0.43390000  0.00000000
C        C    0.80423333  0.54756667  0.23276667  0.00000000
C        C    0.11910000  0.59000000  0.56610000  0.00000000
C        C    0.19576667  0.45243333  0.76723333  0.00000000
C        C    0.92333333  0.13756667  0.10056667  0.00000000
C        C    0.45243333  0.25666667  0.23276667  0.00000000
C        C    0.69623333  0.18496667  0.17016667  0.00000000
C        C    0.17793333  0.02956667  0.16316667  0.00000000
C        C    0.36290000  0.51830000  0.50350000  0.00000000
C        C    0.30376667  0.81503333  0.82983333  0.00000000
C        C    0.51126667  0.69623333  0.82983333  0.00000000
C        C    0.48170000  0.84460000  0.50350000  0.00000000
C        C    0.84460000  0.36290000  0.49650000  0.00000000
C        C    0.02956667  0.85163333  0.83683333  0.00000000
C        C    0.63710000  0.48170000  0.49650000  0.00000000
C        C    0.14836667  0.17793333  0.83683333  0.00000000
C        C    0.82206667  0.97043333  0.83683333  0.00000000
C        C    0.85163333  0.82206667  0.16316667  0.00000000
C        C    0.51830000  0.15540000  0.49650000  0.00000000
C        C    0.81503333  0.51126667  0.17016667  0.00000000
C        C    0.15540000  0.63710000  0.50350000  0.00000000
C        C    0.18496667  0.48873333  0.82983333  0.00000000
C        C    0.97043333  0.14836667  0.16316667  0.00000000
C        C    0.48873333  0.30376667  0.17016667  0.00000000
H        H    0.65523333  0.14516667  0.16716667  0.00000000
H        H    0.17673333  0.98856667  0.16616667  0.00000000
H        H    0.32190000  0.47850000  0.50050000  0.00000000
H        H    0.34476667  0.85483333  0.83283333  0.00000000
H        H    0.51006667  0.65523333  0.83283333  0.00000000
H        H    0.52150000  0.84340000  0.50050000  0.00000000
H        H    0.84340000  0.32190000  0.49950000  0.00000000
H        H    0.98856667  0.81183333  0.83383333  0.00000000
H        H    0.67810000  0.52150000  0.49950000  0.00000000
H        H    0.18816667  0.17673333  0.83383333  0.00000000
H        H    0.82326667  0.01143333  0.83383333  0.00000000
H        H    0.81183333  0.82326667  0.16616667  0.00000000
H        H    0.47850000  0.15660000  0.49950000  0.00000000
H        H    0.85483333  0.51006667  0.16716667  0.00000000
H        H    0.15660000  0.67810000  0.50050000  0.00000000
H        H    0.14516667  0.48993333  0.83283333  0.00000000
H        H    0.01143333  0.18816667  0.16616667  0.00000000
H        H    0.48993333  0.34476667  0.16716667  0.00000000
C        C    0.71363333  0.23626667  0.11286667  0.00000000
C        C    0.14403333  0.04696667  0.22046667  0.00000000
C        C    0.38030000  0.56960000  0.44620000  0.00000000
C        C    0.28636667  0.76373333  0.88713333  0.00000000
C        C    0.47736667  0.71363333  0.88713333  0.00000000
C        C    0.43040000  0.81070000  0.44620000  0.00000000
C        C    0.81070000  0.38030000  0.55380000  0.00000000
C        C    0.04696667  0.90293333  0.77953333  0.00000000
C        C    0.61970000  0.43040000  0.55380000  0.00000000
C        C    0.09706667  0.14403333  0.77953333  0.00000000
C        C    0.85596667  0.95303333  0.77953333  0.00000000
C        C    0.90293333  0.85596667  0.22046667  0.00000000
C        C    0.56960000  0.18930000  0.55380000  0.00000000
C        C    0.76373333  0.47736667  0.11286667  0.00000000
C        C    0.18930000  0.61970000  0.44620000  0.00000000
C        C    0.23626667  0.52263333  0.88713333  0.00000000
C        C    0.95303333  0.09706667  0.22046667  0.00000000
C        C    0.52263333  0.28636667  0.11286667  0.00000000
H        H    0.68383333  0.23016667  0.06916667  0.00000000
H        H    0.12033333  0.01716667  0.26416667  0.00000000
H        H    0.35050000  0.56350000  0.40250000  0.00000000
H        H    0.31616667  0.76983333  0.93083333  0.00000000
H        H    0.45366667  0.68383333  0.93083333  0.00000000
H        H    0.43650000  0.78700000  0.40250000  0.00000000
H        H    0.78700000  0.35050000  0.59750000  0.00000000
H        H    0.01716667  0.89683333  0.73583333  0.00000000
H        H    0.64950000  0.43650000  0.59750000  0.00000000
H        H    0.10316667  0.12033333  0.73583333  0.00000000
H        H    0.87966667  0.98283333  0.73583333  0.00000000
H        H    0.89683333  0.87966667  0.26416667  0.00000000
H        H    0.56350000  0.21300000  0.59750000  0.00000000
H        H    0.76983333  0.45366667  0.06916667  0.00000000
H        H    0.21300000  0.64950000  0.40250000  0.00000000
H        H    0.23016667  0.54633333  0.93083333  0.00000000
H        H    0.98283333  0.10316667  0.26416667  0.00000000
H        H    0.54633333  0.31616667  0.06916667  0.00000000
C        C    0.59433333  0.95696667  0.18796667  0.00000000
C        C    0.30403333  0.92766667  0.14536667  0.00000000
C        C    0.26100000  0.29030000  0.52130000  0.00000000
C        C    0.40566667  0.04303333  0.81203333  0.00000000
C        C    0.63736667  0.59433333  0.81203333  0.00000000
C        C    0.70970000  0.97070000  0.52130000  0.00000000
C        C    0.97070000  0.26100000  0.47870000  0.00000000
C        C    0.92766667  0.62363333  0.85463333  0.00000000
C        C    0.73900000  0.70970000  0.47870000  0.00000000
C        C    0.37636667  0.30403333  0.85463333  0.00000000
C        C    0.69596667  0.07233333  0.85463333  0.00000000
C        C    0.62363333  0.69596667  0.14536667  0.00000000
C        C    0.29030000  0.02930000  0.47870000  0.00000000
C        C    0.04303333  0.63736667  0.18796667  0.00000000
C        C    0.02930000  0.73900000  0.52130000  0.00000000
C        C    0.95696667  0.36263333  0.81203333  0.00000000
C        C    0.07233333  0.37636667  0.14536667  0.00000000
C        C    0.36263333  0.40566667  0.18796667  0.00000000
C        C    0.53183333  0.91476667  0.22276667  0.00000000
C        C    0.28373333  0.86516667  0.11056667  0.00000000
C        C    0.19850000  0.24810000  0.55610000  0.00000000
C        C    0.46816667  0.08523333  0.77723333  0.00000000
C        C    0.61706667  0.53183333  0.77723333  0.00000000
C        C    0.75190000  0.95040000  0.55610000  0.00000000
C        C    0.95040000  0.19850000  0.44390000  0.00000000
C        C    0.86516667  0.58143333  0.88943333  0.00000000
C        C    0.80150000  0.75190000  0.44390000  0.00000000
C        C    0.41856667  0.28373333  0.88943333  0.00000000
C        C    0.71626667  0.13483333  0.88943333  0.00000000
C        C    0.58143333  0.71626667  0.11056667  0.00000000
C        C    0.24810000  0.04960000  0.44390000  0.00000000
C        C    0.08523333  0.61706667  0.22276667  0.00000000
C        C    0.04960000  0.80150000  0.55610000  0.00000000
C        C    0.91476667  0.38293333  0.77723333  0.00000000
C        C    0.13483333  0.41856667  0.11056667  0.00000000
C        C    0.38293333  0.46816667  0.22276667  0.00000000
H        H    0.51993333  0.92376667  0.27556667  0.00000000
H        H    0.26283333  0.85326667  0.05776667  0.00000000
H        H    0.18660000  0.25710000  0.60890000  0.00000000
H        H    0.48006667  0.07623333  0.72443333  0.00000000
H        H    0.59616667  0.51993333  0.72443333  0.00000000
H        H    0.74290000  0.92950000  0.60890000  0.00000000
H        H    0.92950000  0.18660000  0.39110000  0.00000000
H        H    0.85326667  0.59043333  0.94223333  0.00000000
H        H    0.81340000  0.74290000  0.39110000  0.00000000
H        H    0.40956667  0.26283333  0.94223333  0.00000000
H        H    0.73716667  0.14673333  0.94223333  0.00000000
H        H    0.59043333  0.73716667  0.05776667  0.00000000
H        H    0.25710000  0.07050000  0.39110000  0.00000000
H        H    0.07623333  0.59616667  0.27556667  0.00000000
H        H    0.07050000  0.81340000  0.60890000  0.00000000
H        H    0.92376667  0.40383333  0.72443333  0.00000000
H        H    0.14673333  0.40956667  0.05776667  0.00000000
H        H    0.40383333  0.48006667  0.27556667  0.00000000
C        C    0.48753333  0.85896667  0.17696667  0.00000000
C        C    0.29523333  0.82086667  0.15636667  0.00000000
C        C    0.15420000  0.19230000  0.51030000  0.00000000
C        C    0.51246667  0.14103333  0.82303333  0.00000000
C        C    0.62856667  0.48753333  0.82303333  0.00000000
C        C    0.80770000  0.96190000  0.51030000  0.00000000
C        C    0.96190000  0.15420000  0.48970000  0.00000000
C        C    0.82086667  0.52563333  0.84363333  0.00000000
C        C    0.84580000  0.80770000  0.48970000  0.00000000
C        C    0.47436667  0.29523333  0.84363333  0.00000000
C        C    0.70476667  0.17913333  0.84363333  0.00000000
C        C    0.52563333  0.70476667  0.15636667  0.00000000
C        C    0.19230000  0.03810000  0.48970000  0.00000000
C        C    0.14103333  0.62856667  0.17696667  0.00000000
C        C    0.03810000  0.84580000  0.51030000  0.00000000
C        C    0.85896667  0.37143333  0.82303333  0.00000000
C        C    0.17913333  0.47436667  0.15636667  0.00000000
C        C    0.37143333  0.51246667  0.17696667  0.00000000
H        H    0.44493333  0.82996667  0.19856667  0.00000000
H        H    0.28163333  0.77826667  0.13476667  0.00000000
H        H    0.11160000  0.16330000  0.53190000  0.00000000
H        H    0.55506667  0.17003333  0.80143333  0.00000000
H        H    0.61496667  0.44493333  0.80143333  0.00000000
H        H    0.83670000  0.94830000  0.53190000  0.00000000
H        H    0.94830000  0.11160000  0.46810000  0.00000000
H        H    0.77826667  0.49663333  0.86523333  0.00000000
H        H    0.88840000  0.83670000  0.46810000  0.00000000
H        H    0.50336667  0.28163333  0.86523333  0.00000000
H        H    0.71836667  0.22173333  0.86523333  0.00000000
H        H    0.49663333  0.71836667  0.13476667  0.00000000
H        H    0.16330000  0.05170000  0.46810000  0.00000000
H        H    0.17003333  0.61496667  0.19856667  0.00000000
H        H    0.05170000  0.88840000  0.53190000  0.00000000
H        H    0.82996667  0.38503333  0.80143333  0.00000000
H        H    0.22173333  0.50336667  0.13476667  0.00000000
H        H    0.38503333  0.55506667  0.19856667  0.00000000
Co       Co   0.66212333  0.06551667  0.32591667  0.00000000
Co       Co   0.26327333  0.99545667  0.00741667  0.00000000
Co       Co   0.32879000  0.39885000  0.65925000  0.00000000
Co       Co   0.33787667  0.93448333  0.67408333  0.00000000
Co       Co   0.59660667  0.66212333  0.67408333  0.00000000
Co       Co   0.60115000  0.92994000  0.65925000  0.00000000
Co       Co   0.92994000  0.32879000  0.34075000  0.00000000
Co       Co   0.99545667  0.73218333  0.99258333  0.00000000
Co       Co   0.67121000  0.60115000  0.34075000  0.00000000
Co       Co   0.26781667  0.26327333  0.99258333  0.00000000
Co       Co   0.73672667  0.00454333  0.99258333  0.00000000
Co       Co   0.73218333  0.73672667  0.00741667  0.00000000
Co       Co   0.39885000  0.07006000  0.34075000  0.00000000
Co       Co   0.93448333  0.59660667  0.32591667  0.00000000
Co       Co   0.07006000  0.67121000  0.65925000  0.00000000
Co       Co   0.06551667  0.40339333  0.67408333  0.00000000
Co       Co   0.00454333  0.26781667  0.00741667  0.00000000
Co       Co   0.40339333  0.33787667  0.32591667  0.00000000
N        N    0.67473333  0.01926667  0.42396667  0.00000000
N        N    0.32213333  0.00806667  0.90936667  0.00000000
N        N    0.34140000  0.35260000  0.75730000  0.00000000
N        N    0.32526667  0.98073333  0.57603333  0.00000000
N        N    0.65546667  0.67473333  0.57603333  0.00000000
N        N    0.64740000  0.98880000  0.75730000  0.00000000
N        N    0.98880000  0.34140000  0.24270000  0.00000000
N        N    0.00806667  0.68593333  0.09063333  0.00000000
N        N    0.65860000  0.64740000  0.24270000  0.00000000
N        N    0.31406667  0.32213333  0.09063333  0.00000000
N        N    0.67786667  0.99193333  0.09063333  0.00000000
N        N    0.68593333  0.67786667  0.90936667  0.00000000
N        N    0.35260000  0.01120000  0.24270000  0.00000000
N        N    0.98073333  0.65546667  0.42396667  0.00000000
N        N    0.01120000  0.65860000  0.75730000  0.00000000
N        N    0.01926667  0.34453333  0.57603333  0.00000000
N        N    0.99193333  0.31406667  0.90936667  0.00000000
N        N    0.34453333  0.32526667  0.42396667  0.00000000
N        N    0.58603333  0.07906667  0.36036667  0.00000000
N        N    0.17363333  0.91936667  0.97296667  0.00000000
N        N    0.25270000  0.41240000  0.69370000  0.00000000
N        N    0.41396667  0.92093333  0.63963333  0.00000000
N        N    0.50696667  0.58603333  0.63963333  0.00000000
N        N    0.58760000  0.84030000  0.69370000  0.00000000
N        N    0.84030000  0.25270000  0.30630000  0.00000000
N        N    0.91936667  0.74573333  0.02703333  0.00000000
N        N    0.74730000  0.58760000  0.30630000  0.00000000
N        N    0.25426667  0.17363333  0.02703333  0.00000000
N        N    0.82636667  0.08063333  0.02703333  0.00000000
N        N    0.74573333  0.82636667  0.97296667  0.00000000
N        N    0.41240000  0.15970000  0.30630000  0.00000000
N        N    0.92093333  0.50696667  0.36036667  0.00000000
N        N    0.15970000  0.74730000  0.69370000  0.00000000
N        N    0.07906667  0.49303333  0.63963333  0.00000000
N        N    0.08063333  0.25426667  0.97296667  0.00000000
N        N    0.49303333  0.41396667  0.36036667  0.00000000
N        N    0.74173333  0.15466667  0.29986667  0.00000000
N        N    0.25373333  0.07506667  0.03346667  0.00000000
N        N    0.40840000  0.48800000  0.63320000  0.00000000
N        N    0.25826667  0.84533333  0.70013333  0.00000000
N        N    0.58706667  0.74173333  0.70013333  0.00000000
N        N    0.51200000  0.92040000  0.63320000  0.00000000
N        N    0.92040000  0.40840000  0.36680000  0.00000000
N        N    0.07506667  0.82133333  0.96653333  0.00000000
N        N    0.59160000  0.51200000  0.36680000  0.00000000
N        N    0.17866667  0.25373333  0.96653333  0.00000000
N        N    0.74626667  0.92493333  0.96653333  0.00000000
N        N    0.82133333  0.74626667  0.03346667  0.00000000
N        N    0.48800000  0.07960000  0.36680000  0.00000000
N        N    0.84533333  0.58706667  0.29986667  0.00000000
N        N    0.07960000  0.59160000  0.63320000  0.00000000
N        N    0.15466667  0.41293333  0.70013333  0.00000000
N        N    0.92493333  0.17866667  0.03346667  0.00000000
N        N    0.41293333  0.25826667  0.29986667  0.00000000
N        N    0.64913333  0.01536667  0.21846667  0.00000000
N        N    0.30043333  0.98246667  0.11486667  0.00000000
N        N    0.31580000  0.34870000  0.55180000  0.00000000
N        N    0.35086667  0.98463333  0.78153333  0.00000000
N        N    0.63376667  0.64913333  0.78153333  0.00000000
N        N    0.65130000  0.96710000  0.55180000  0.00000000
N        N    0.96710000  0.31580000  0.44820000  0.00000000
N        N    0.98246667  0.68203333  0.88513333  0.00000000
N        N    0.68420000  0.65130000  0.44820000  0.00000000
N        N    0.31796667  0.30043333  0.88513333  0.00000000
N        N    0.69956667  0.01753333  0.88513333  0.00000000
N        N    0.68203333  0.69956667  0.11486667  0.00000000
N        N    0.34870000  0.03290000  0.44820000  0.00000000
N        N    0.98463333  0.63376667  0.21846667  0.00000000
N        N    0.03290000  0.68420000  0.55180000  0.00000000
N        N    0.01536667  0.36623333  0.78153333  0.00000000
N        N    0.01753333  0.31796667  0.11486667  0.00000000
N        N    0.36623333  0.35086667  0.21846667  0.00000000
