data_ZIF-7

_cell_length_a  22.98900000
_cell_length_b  22.98900000
_cell_length_c  15.76300000
_cell_angle_alpha  90.00000000
_cell_angle_beta  90.00000000
_cell_angle_gamma  120.00000000


_symmetry_space_group_name_Hall ' P 1'
_symmetry_space_group_name_H-M  'P 1'
_symmetry_Int_Tables_number     1

loop_
_atom_site_label
_atom_site_type_symbol
_atom_site_fract_x
_atom_site_fract_y
_atom_site_fract_z
_atom_site_charge
C        C    0.00433333  0.36616667  0.49036667  0.00000000
C        C    0.30483333  0.33766667  0.84296667  0.00000000
C        C    0.67100000  0.69950000  0.82370000  0.00000000
C        C    0.99566667  0.63383333  0.50963333  0.00000000
C        C    0.63816667  0.00433333  0.50963333  0.00000000
C        C    0.30050000  0.97150000  0.82370000  0.00000000
C        C    0.97150000  0.67100000  0.17630000  0.00000000
C        C    0.33766667  0.03283333  0.15703333  0.00000000
C        C    0.32900000  0.30050000  0.17630000  0.00000000
C        C    0.96716667  0.30483333  0.15703333  0.00000000
C        C    0.69516667  0.66233333  0.15703333  0.00000000
C        C    0.03283333  0.69516667  0.84296667  0.00000000
C        C    0.69950000  0.02850000  0.17630000  0.00000000
C        C    0.63383333  0.63816667  0.49036667  0.00000000
C        C    0.02850000  0.32900000  0.82370000  0.00000000
C        C    0.36616667  0.36183333  0.50963333  0.00000000
C        C    0.66233333  0.96716667  0.84296667  0.00000000
C        C    0.36183333  0.99566667  0.49036667  0.00000000
H        H    0.00123333  0.40486667  0.49466667  0.00000000
H        H    0.26303333  0.33456667  0.83866667  0.00000000
H        H    0.66790000  0.73820000  0.82800000  0.00000000
H        H    0.99876667  0.59513333  0.50533333  0.00000000
H        H    0.59636667  0.00123333  0.50533333  0.00000000
H        H    0.26180000  0.92970000  0.82800000  0.00000000
H        H    0.92970000  0.66790000  0.17200000  0.00000000
H        H    0.33456667  0.07153333  0.16133333  0.00000000
H        H    0.33210000  0.26180000  0.17200000  0.00000000
H        H    0.92846667  0.26303333  0.16133333  0.00000000
H        H    0.73696667  0.66543333  0.16133333  0.00000000
H        H    0.07153333  0.73696667  0.83866667  0.00000000
H        H    0.73820000  0.07030000  0.17200000  0.00000000
H        H    0.59513333  0.59636667  0.49466667  0.00000000
H        H    0.07030000  0.33210000  0.82800000  0.00000000
H        H    0.40486667  0.40363333  0.50533333  0.00000000
H        H    0.66543333  0.92846667  0.83866667  0.00000000
H        H    0.40363333  0.99876667  0.49466667  0.00000000
C        C    0.99693333  0.27546667  0.44026667  0.00000000
C        C    0.38813333  0.33026667  0.89306667  0.00000000
C        C    0.66360000  0.60880000  0.77360000  0.00000000
C        C    0.00306667  0.72453333  0.55973333  0.00000000
C        C    0.72146667  0.99693333  0.55973333  0.00000000
C        C    0.39120000  0.05480000  0.77360000  0.00000000
C        C    0.05480000  0.66360000  0.22640000  0.00000000
C        C    0.33026667  0.94213333  0.10693333  0.00000000
C        C    0.33640000  0.39120000  0.22640000  0.00000000
C        C    0.05786667  0.38813333  0.10693333  0.00000000
C        C    0.61186667  0.66973333  0.10693333  0.00000000
C        C    0.94213333  0.61186667  0.89306667  0.00000000
C        C    0.60880000  0.94520000  0.22640000  0.00000000
C        C    0.72453333  0.72146667  0.44026667  0.00000000
C        C    0.94520000  0.33640000  0.77360000  0.00000000
C        C    0.27546667  0.27853333  0.55973333  0.00000000
C        C    0.66973333  0.05786667  0.89306667  0.00000000
C        C    0.27853333  0.00306667  0.44026667  0.00000000
C        C    0.98483333  0.21956667  0.39446667  0.00000000
C        C    0.43193333  0.31816667  0.93886667  0.00000000
C        C    0.65150000  0.55290000  0.72780000  0.00000000
C        C    0.01516667  0.78043333  0.60553333  0.00000000
C        C    0.76526667  0.98483333  0.60553333  0.00000000
C        C    0.44710000  0.09860000  0.72780000  0.00000000
C        C    0.09860000  0.65150000  0.27220000  0.00000000
C        C    0.31816667  0.88623333  0.06113333  0.00000000
C        C    0.34850000  0.44710000  0.27220000  0.00000000
C        C    0.11376667  0.43193333  0.06113333  0.00000000
C        C    0.56806667  0.68183333  0.06113333  0.00000000
C        C    0.88623333  0.56806667  0.93886667  0.00000000
C        C    0.55290000  0.90140000  0.27220000  0.00000000
C        C    0.78043333  0.76526667  0.39446667  0.00000000
C        C    0.90140000  0.34850000  0.72780000  0.00000000
C        C    0.21956667  0.23473333  0.60553333  0.00000000
C        C    0.68183333  0.11376667  0.93886667  0.00000000
C        C    0.23473333  0.01516667  0.39446667  0.00000000
H        H    0.96383333  0.21026667  0.34186667  0.00000000
H        H    0.42023333  0.29716667  0.99146667  0.00000000
H        H    0.63050000  0.54360000  0.67520000  0.00000000
H        H    0.03616667  0.78973333  0.65813333  0.00000000
H        H    0.75356667  0.96383333  0.65813333  0.00000000
H        H    0.45640000  0.08690000  0.67520000  0.00000000
H        H    0.08690000  0.63050000  0.32480000  0.00000000
H        H    0.29716667  0.87693333  0.00853333  0.00000000
H        H    0.36950000  0.45640000  0.32480000  0.00000000
H        H    0.12306667  0.42023333  0.00853333  0.00000000
H        H    0.57976667  0.70283333  0.00853333  0.00000000
H        H    0.87693333  0.57976667  0.99146667  0.00000000
H        H    0.54360000  0.91310000  0.32480000  0.00000000
H        H    0.78973333  0.75356667  0.34186667  0.00000000
H        H    0.91310000  0.36950000  0.67520000  0.00000000
H        H    0.21026667  0.24643333  0.65813333  0.00000000
H        H    0.70283333  0.12306667  0.99146667  0.00000000
H        H    0.24643333  0.03616667  0.34186667  0.00000000
C        C    0.00543333  0.17836667  0.42966667  0.00000000
C        C    0.49373333  0.33876667  0.90366667  0.00000000
C        C    0.67210000  0.51170000  0.76300000  0.00000000
C        C    0.99456667  0.82163333  0.57033333  0.00000000
C        C    0.82706667  0.00543333  0.57033333  0.00000000
C        C    0.48830000  0.16040000  0.76300000  0.00000000
C        C    0.16040000  0.67210000  0.23700000  0.00000000
C        C    0.33876667  0.84503333  0.09633333  0.00000000
C        C    0.32790000  0.48830000  0.23700000  0.00000000
C        C    0.15496667  0.49373333  0.09633333  0.00000000
C        C    0.50626667  0.66123333  0.09633333  0.00000000
C        C    0.84503333  0.50626667  0.90366667  0.00000000
C        C    0.51170000  0.83960000  0.23700000  0.00000000
C        C    0.82163333  0.82706667  0.42966667  0.00000000
C        C    0.83960000  0.32790000  0.76300000  0.00000000
C        C    0.17836667  0.17293333  0.57033333  0.00000000
C        C    0.66123333  0.15496667  0.90366667  0.00000000
C        C    0.17293333  0.99456667  0.42966667  0.00000000
H        H    0.99843333  0.14046667  0.39996667  0.00000000
H        H    0.52463333  0.33176667  0.93336667  0.00000000
H        H    0.66510000  0.47380000  0.73330000  0.00000000
H        H    0.00156667  0.85953333  0.60003333  0.00000000
H        H    0.85796667  0.99843333  0.60003333  0.00000000
H        H    0.52620000  0.19130000  0.73330000  0.00000000
H        H    0.19130000  0.66510000  0.26670000  0.00000000
H        H    0.33176667  0.80713333  0.06663333  0.00000000
H        H    0.33490000  0.52620000  0.26670000  0.00000000
H        H    0.19286667  0.52463333  0.06663333  0.00000000
H        H    0.47536667  0.66823333  0.06663333  0.00000000
H        H    0.80713333  0.47536667  0.93336667  0.00000000
H        H    0.47380000  0.80870000  0.26670000  0.00000000
H        H    0.85953333  0.85796667  0.39996667  0.00000000
H        H    0.80870000  0.33490000  0.73330000  0.00000000
H        H    0.14046667  0.14203333  0.60003333  0.00000000
H        H    0.66823333  0.19286667  0.93336667  0.00000000
H        H    0.14203333  0.00156667  0.39996667  0.00000000
C        C    0.03693333  0.19176667  0.51036667  0.00000000
C        C    0.51183333  0.37026667  0.82296667  0.00000000
C        C    0.70360000  0.52510000  0.84370000  0.00000000
C        C    0.96306667  0.80823333  0.48963333  0.00000000
C        C    0.84516667  0.03693333  0.48963333  0.00000000
C        C    0.47490000  0.17850000  0.84370000  0.00000000
C        C    0.17850000  0.70360000  0.15630000  0.00000000
C        C    0.37026667  0.85843333  0.17703333  0.00000000
C        C    0.29640000  0.47490000  0.15630000  0.00000000
C        C    0.14156667  0.51183333  0.17703333  0.00000000
C        C    0.48816667  0.62973333  0.17703333  0.00000000
C        C    0.85843333  0.48816667  0.82296667  0.00000000
C        C    0.52510000  0.82150000  0.15630000  0.00000000
C        C    0.80823333  0.84516667  0.51036667  0.00000000
C        C    0.82150000  0.29640000  0.84370000  0.00000000
C        C    0.19176667  0.15483333  0.48963333  0.00000000
C        C    0.62973333  0.14156667  0.82296667  0.00000000
C        C    0.15483333  0.96306667  0.51036667  0.00000000
H        H    0.05033333  0.16266667  0.53216667  0.00000000
H        H    0.55433333  0.38366667  0.80116667  0.00000000
H        H    0.71700000  0.49600000  0.86550000  0.00000000
H        H    0.94966667  0.83733333  0.46783333  0.00000000
H        H    0.88766667  0.05033333  0.46783333  0.00000000
H        H    0.50400000  0.22100000  0.86550000  0.00000000
H        H    0.22100000  0.71700000  0.13450000  0.00000000
H        H    0.38366667  0.82933333  0.19883333  0.00000000
H        H    0.28300000  0.50400000  0.13450000  0.00000000
H        H    0.17066667  0.55433333  0.19883333  0.00000000
H        H    0.44566667  0.61633333  0.19883333  0.00000000
H        H    0.82933333  0.44566667  0.80116667  0.00000000
H        H    0.49600000  0.77900000  0.13450000  0.00000000
H        H    0.83733333  0.88766667  0.53216667  0.00000000
H        H    0.77900000  0.28300000  0.86550000  0.00000000
H        H    0.16266667  0.11233333  0.46783333  0.00000000
H        H    0.61633333  0.17066667  0.80116667  0.00000000
H        H    0.11233333  0.94966667  0.53216667  0.00000000
C        C    0.04443333  0.40596667  0.18706667  0.00000000
C        C    0.30513333  0.37776667  0.14626667  0.00000000
C        C    0.71110000  0.73930000  0.52040000  0.00000000
C        C    0.95556667  0.59403333  0.81293333  0.00000000
C        C    0.63846667  0.04443333  0.81293333  0.00000000
C        C    0.26070000  0.97180000  0.52040000  0.00000000
C        C    0.97180000  0.71110000  0.47960000  0.00000000
C        C    0.37776667  0.07263333  0.85373333  0.00000000
C        C    0.28890000  0.26070000  0.47960000  0.00000000
C        C    0.92736667  0.30513333  0.85373333  0.00000000
C        C    0.69486667  0.62223333  0.85373333  0.00000000
C        C    0.07263333  0.69486667  0.14626667  0.00000000
C        C    0.73930000  0.02820000  0.47960000  0.00000000
C        C    0.59403333  0.63846667  0.18706667  0.00000000
C        C    0.02820000  0.28890000  0.52040000  0.00000000
C        C    0.40596667  0.36153333  0.81293333  0.00000000
C        C    0.62223333  0.92736667  0.14626667  0.00000000
C        C    0.36153333  0.95556667  0.18706667  0.00000000
C        C    0.08663333  0.46796667  0.22326667  0.00000000
C        C    0.28533333  0.41996667  0.11006667  0.00000000
C        C    0.75330000  0.80130000  0.55660000  0.00000000
C        C    0.91336667  0.53203333  0.77673333  0.00000000
C        C    0.61866667  0.08663333  0.77673333  0.00000000
C        C    0.19870000  0.95200000  0.55660000  0.00000000
C        C    0.95200000  0.75330000  0.44340000  0.00000000
C        C    0.41996667  0.13463333  0.88993333  0.00000000
C        C    0.24670000  0.19870000  0.44340000  0.00000000
C        C    0.86536667  0.28533333  0.88993333  0.00000000
C        C    0.71466667  0.58003333  0.88993333  0.00000000
C        C    0.13463333  0.71466667  0.11006667  0.00000000
C        C    0.80130000  0.04800000  0.44340000  0.00000000
C        C    0.53203333  0.61866667  0.22326667  0.00000000
C        C    0.04800000  0.24670000  0.55660000  0.00000000
C        C    0.46796667  0.38133333  0.77673333  0.00000000
C        C    0.58003333  0.86536667  0.11006667  0.00000000
C        C    0.38133333  0.91336667  0.22326667  0.00000000
H        H    0.07803333  0.47926667  0.27666667  0.00000000
H        H    0.26543333  0.41136667  0.05666667  0.00000000
H        H    0.74470000  0.81260000  0.61000000  0.00000000
H        H    0.92196667  0.52073333  0.72333333  0.00000000
H        H    0.59876667  0.07803333  0.72333333  0.00000000
H        H    0.18740000  0.93210000  0.61000000  0.00000000
H        H    0.93210000  0.74470000  0.39000000  0.00000000
H        H    0.41136667  0.14593333  0.94333333  0.00000000
H        H    0.25530000  0.18740000  0.39000000  0.00000000
H        H    0.85406667  0.26543333  0.94333333  0.00000000
H        H    0.73456667  0.58863333  0.94333333  0.00000000
H        H    0.14593333  0.73456667  0.05666667  0.00000000
H        H    0.81260000  0.06790000  0.39000000  0.00000000
H        H    0.52073333  0.59876667  0.27666667  0.00000000
H        H    0.06790000  0.25530000  0.61000000  0.00000000
H        H    0.47926667  0.40123333  0.72333333  0.00000000
H        H    0.58863333  0.85406667  0.05666667  0.00000000
H        H    0.40123333  0.92196667  0.27666667  0.00000000
C        C    0.80823333  0.20116667  0.33976667  0.00000000
C        C    0.27373333  0.14156667  0.99356667  0.00000000
C        C    0.47490000  0.53450000  0.67310000  0.00000000
C        C    0.19176667  0.79883333  0.66023333  0.00000000
C        C    0.60706667  0.80823333  0.66023333  0.00000000
C        C    0.46550000  0.94040000  0.67310000  0.00000000
C        C    0.94040000  0.47490000  0.32690000  0.00000000
C        C    0.14156667  0.86783333  0.00643333  0.00000000
C        C    0.52510000  0.46550000  0.32690000  0.00000000
C        C    0.13216667  0.27373333  0.00643333  0.00000000
C        C    0.72626667  0.85843333  0.00643333  0.00000000
C        C    0.86783333  0.72626667  0.99356667  0.00000000
C        C    0.53450000  0.05960000  0.32690000  0.00000000
C        C    0.79883333  0.60706667  0.33976667  0.00000000
C        C    0.05960000  0.52510000  0.67310000  0.00000000
C        C    0.20116667  0.39293333  0.66023333  0.00000000
C        C    0.85843333  0.13216667  0.99356667  0.00000000
C        C    0.39293333  0.19176667  0.33976667  0.00000000
H        H    0.82443333  0.18966667  0.38706667  0.00000000
H        H    0.30143333  0.15776667  0.94626667  0.00000000
H        H    0.49110000  0.52300000  0.72040000  0.00000000
H        H    0.17556667  0.81033333  0.61293333  0.00000000
H        H    0.63476667  0.82443333  0.61293333  0.00000000
H        H    0.47700000  0.96810000  0.72040000  0.00000000
H        H    0.96810000  0.49110000  0.27960000  0.00000000
H        H    0.15776667  0.85633333  0.05373333  0.00000000
H        H    0.50890000  0.47700000  0.27960000  0.00000000
H        H    0.14366667  0.30143333  0.05373333  0.00000000
H        H    0.69856667  0.84223333  0.05373333  0.00000000
H        H    0.85633333  0.69856667  0.94626667  0.00000000
H        H    0.52300000  0.03190000  0.27960000  0.00000000
H        H    0.81033333  0.63476667  0.38706667  0.00000000
H        H    0.03190000  0.50890000  0.72040000  0.00000000
H        H    0.18966667  0.36523333  0.61293333  0.00000000
H        H    0.84223333  0.14366667  0.94626667  0.00000000
H        H    0.36523333  0.17556667  0.38706667  0.00000000
C        C    0.80343333  0.25696667  0.23606667  0.00000000
C        C    0.21313333  0.13676667  0.09726667  0.00000000
C        C    0.47010000  0.59030000  0.56940000  0.00000000
C        C    0.19656667  0.74303333  0.76393333  0.00000000
C        C    0.54646667  0.80343333  0.76393333  0.00000000
C        C    0.40970000  0.87980000  0.56940000  0.00000000
C        C    0.87980000  0.47010000  0.43060000  0.00000000
C        C    0.13676667  0.92363333  0.90273333  0.00000000
C        C    0.52990000  0.40970000  0.43060000  0.00000000
C        C    0.07636667  0.21313333  0.90273333  0.00000000
C        C    0.78686667  0.86323333  0.90273333  0.00000000
C        C    0.92363333  0.78686667  0.09726667  0.00000000
C        C    0.59030000  0.12020000  0.43060000  0.00000000
C        C    0.74303333  0.54646667  0.23606667  0.00000000
C        C    0.12020000  0.52990000  0.56940000  0.00000000
C        C    0.25696667  0.45353333  0.76393333  0.00000000
C        C    0.86323333  0.07636667  0.09726667  0.00000000
C        C    0.45353333  0.19656667  0.23606667  0.00000000
C        C    0.81403333  0.30386667  0.17006667  0.00000000
C        C    0.17683333  0.14736667  0.16326667  0.00000000
C        C    0.48070000  0.63720000  0.50340000  0.00000000
C        C    0.18596667  0.69613333  0.82993333  0.00000000
C        C    0.51016667  0.81403333  0.82993333  0.00000000
C        C    0.36280000  0.84350000  0.50340000  0.00000000
C        C    0.84350000  0.48070000  0.49660000  0.00000000
C        C    0.14736667  0.97053333  0.83673333  0.00000000
C        C    0.51930000  0.36280000  0.49660000  0.00000000
C        C    0.02946667  0.17683333  0.83673333  0.00000000
C        C    0.82316667  0.85263333  0.83673333  0.00000000
C        C    0.97053333  0.82316667  0.16326667  0.00000000
C        C    0.63720000  0.15650000  0.49660000  0.00000000
C        C    0.69613333  0.51016667  0.17006667  0.00000000
C        C    0.15650000  0.51930000  0.50340000  0.00000000
C        C    0.30386667  0.48983333  0.82993333  0.00000000
C        C    0.85263333  0.02946667  0.16326667  0.00000000
C        C    0.48983333  0.18596667  0.17006667  0.00000000
H        H    0.85443333  0.34396667  0.16576667  0.00000000
H        H    0.17713333  0.18776667  0.16756667  0.00000000
H        H    0.52110000  0.67730000  0.49910000  0.00000000
H        H    0.14556667  0.65603333  0.83423333  0.00000000
H        H    0.51046667  0.85443333  0.83423333  0.00000000
H        H    0.32270000  0.84380000  0.49910000  0.00000000
H        H    0.84380000  0.52110000  0.50090000  0.00000000
H        H    0.18776667  0.01063333  0.83243333  0.00000000
H        H    0.47890000  0.32270000  0.50090000  0.00000000
H        H    0.98936667  0.17713333  0.83243333  0.00000000
H        H    0.82286667  0.81223333  0.83243333  0.00000000
H        H    0.01063333  0.82286667  0.16756667  0.00000000
H        H    0.67730000  0.15620000  0.50090000  0.00000000
H        H    0.65603333  0.51046667  0.16576667  0.00000000
H        H    0.15620000  0.47890000  0.49910000  0.00000000
H        H    0.34396667  0.48953333  0.83423333  0.00000000
H        H    0.81223333  0.98936667  0.16756667  0.00000000
H        H    0.48953333  0.14556667  0.16576667  0.00000000
C        C    0.88043333  0.41096667  0.42666667  0.00000000
C        C    0.13613333  0.21376667  0.90666667  0.00000000
C        C    0.54710000  0.74430000  0.76000000  0.00000000
C        C    0.11956667  0.58903333  0.57333333  0.00000000
C        C    0.46946667  0.88043333  0.57333333  0.00000000
C        C    0.25570000  0.80280000  0.76000000  0.00000000
C        C    0.80280000  0.54710000  0.24000000  0.00000000
C        C    0.21376667  0.07763333  0.09333333  0.00000000
C        C    0.45290000  0.25570000  0.24000000  0.00000000
C        C    0.92236667  0.13613333  0.09333333  0.00000000
C        C    0.86386667  0.78623333  0.09333333  0.00000000
C        C    0.07763333  0.86386667  0.90666667  0.00000000
C        C    0.74430000  0.19720000  0.24000000  0.00000000
C        C    0.58903333  0.46946667  0.42666667  0.00000000
C        C    0.19720000  0.45290000  0.76000000  0.00000000
C        C    0.41096667  0.53053333  0.57333333  0.00000000
C        C    0.78623333  0.92236667  0.90666667  0.00000000
C        C    0.53053333  0.11956667  0.42666667  0.00000000
C        C    0.84413333  0.35716667  0.48646667  0.00000000
C        C    0.15363333  0.17746667  0.84686667  0.00000000
C        C    0.51080000  0.69050000  0.81980000  0.00000000
C        C    0.15586667  0.64283333  0.51353333  0.00000000
C        C    0.48696667  0.84413333  0.51353333  0.00000000
C        C    0.30950000  0.82030000  0.81980000  0.00000000
C        C    0.82030000  0.51080000  0.18020000  0.00000000
C        C    0.17746667  0.02383333  0.15313333  0.00000000
C        C    0.48920000  0.30950000  0.18020000  0.00000000
C        C    0.97616667  0.15363333  0.15313333  0.00000000
C        C    0.84636667  0.82253333  0.15313333  0.00000000
C        C    0.02383333  0.84636667  0.84686667  0.00000000
C        C    0.69050000  0.17970000  0.18020000  0.00000000
C        C    0.64283333  0.48696667  0.48646667  0.00000000
C        C    0.17970000  0.48920000  0.81980000  0.00000000
C        C    0.35716667  0.51303333  0.51353333  0.00000000
C        C    0.82253333  0.97616667  0.84686667  0.00000000
C        C    0.51303333  0.15586667  0.48646667  0.00000000
H        H    0.84493333  0.31716667  0.48346667  0.00000000
H        H    0.19443333  0.17826667  0.84986667  0.00000000
H        H    0.51160000  0.65050000  0.81680000  0.00000000
H        H    0.15506667  0.68283333  0.51653333  0.00000000
H        H    0.52776667  0.84493333  0.51653333  0.00000000
H        H    0.34950000  0.86110000  0.81680000  0.00000000
H        H    0.86110000  0.51160000  0.18320000  0.00000000
H        H    0.17826667  0.98383333  0.15013333  0.00000000
H        H    0.48840000  0.34950000  0.18320000  0.00000000
H        H    0.01616667  0.19443333  0.15013333  0.00000000
H        H    0.80556667  0.82173333  0.15013333  0.00000000
H        H    0.98383333  0.80556667  0.84986667  0.00000000
H        H    0.65050000  0.13890000  0.18320000  0.00000000
H        H    0.68283333  0.52776667  0.48346667  0.00000000
H        H    0.13890000  0.48840000  0.81680000  0.00000000
H        H    0.31716667  0.47223333  0.51653333  0.00000000
H        H    0.82173333  0.01616667  0.84986667  0.00000000
H        H    0.47223333  0.15506667  0.48346667  0.00000000
C        C    0.76373333  0.28856667  0.11376667  0.00000000
C        C    0.14183333  0.09706667  0.21956667  0.00000000
C        C    0.43040000  0.62190000  0.44710000  0.00000000
C        C    0.23626667  0.71143333  0.88623333  0.00000000
C        C    0.47516667  0.76373333  0.88623333  0.00000000
C        C    0.37810000  0.80850000  0.44710000  0.00000000
C        C    0.80850000  0.43040000  0.55290000  0.00000000
C        C    0.09706667  0.95523333  0.78043333  0.00000000
C        C    0.56960000  0.37810000  0.55290000  0.00000000
C        C    0.04476667  0.14183333  0.78043333  0.00000000
C        C    0.85816667  0.90293333  0.78043333  0.00000000
C        C    0.95523333  0.85816667  0.21956667  0.00000000
C        C    0.62190000  0.19150000  0.55290000  0.00000000
C        C    0.71143333  0.47516667  0.11376667  0.00000000
C        C    0.19150000  0.56960000  0.44710000  0.00000000
C        C    0.28856667  0.52483333  0.88623333  0.00000000
C        C    0.90293333  0.04476667  0.21956667  0.00000000
C        C    0.52483333  0.23626667  0.11376667  0.00000000
H        H    0.77023333  0.31936667  0.07136667  0.00000000
H        H    0.11753333  0.10356667  0.26196667  0.00000000
H        H    0.43690000  0.65270000  0.40470000  0.00000000
H        H    0.22976667  0.68063333  0.92863333  0.00000000
H        H    0.45086667  0.77023333  0.92863333  0.00000000
H        H    0.34730000  0.78420000  0.40470000  0.00000000
H        H    0.78420000  0.43690000  0.59530000  0.00000000
H        H    0.10356667  0.98603333  0.73803333  0.00000000
H        H    0.56310000  0.34730000  0.59530000  0.00000000
H        H    0.01396667  0.11753333  0.73803333  0.00000000
H        H    0.88246667  0.89643333  0.73803333  0.00000000
H        H    0.98603333  0.88246667  0.26196667  0.00000000
H        H    0.65270000  0.21580000  0.59530000  0.00000000
H        H    0.68063333  0.45086667  0.07136667  0.00000000
H        H    0.21580000  0.56310000  0.40470000  0.00000000
H        H    0.31936667  0.54913333  0.92863333  0.00000000
H        H    0.89643333  0.01396667  0.26196667  0.00000000
H        H    0.54913333  0.22976667  0.07136667  0.00000000
C        C    0.80793333  0.36836667  0.54916667  0.00000000
C        C    0.10623333  0.14126667  0.78416667  0.00000000
C        C    0.47460000  0.70170000  0.88250000  0.00000000
C        C    0.19206667  0.63163333  0.45083333  0.00000000
C        C    0.43956667  0.80793333  0.45083333  0.00000000
C        C    0.29830000  0.77290000  0.88250000  0.00000000
C        C    0.77290000  0.47460000  0.11750000  0.00000000
C        C    0.14126667  0.03503333  0.21583333  0.00000000
C        C    0.52540000  0.29830000  0.11750000  0.00000000
C        C    0.96496667  0.10623333  0.21583333  0.00000000
C        C    0.89376667  0.85873333  0.21583333  0.00000000
C        C    0.03503333  0.89376667  0.78416667  0.00000000
C        C    0.70170000  0.22710000  0.11750000  0.00000000
C        C    0.63163333  0.43956667  0.54916667  0.00000000
C        C    0.22710000  0.52540000  0.88250000  0.00000000
C        C    0.36836667  0.56043333  0.45083333  0.00000000
C        C    0.85873333  0.96496667  0.78416667  0.00000000
C        C    0.56043333  0.19206667  0.54916667  0.00000000
H        H    0.78323333  0.33496667  0.58866667  0.00000000
H        H    0.11493333  0.11656667  0.74466667  0.00000000
H        H    0.44990000  0.66830000  0.92200000  0.00000000
H        H    0.21676667  0.66503333  0.41133333  0.00000000
H        H    0.44826667  0.78323333  0.41133333  0.00000000
H        H    0.33170000  0.78160000  0.92200000  0.00000000
H        H    0.78160000  0.44990000  0.07800000  0.00000000
H        H    0.11656667  0.00163333  0.25533333  0.00000000
H        H    0.55010000  0.33170000  0.07800000  0.00000000
H        H    0.99836667  0.11493333  0.25533333  0.00000000
H        H    0.88506667  0.88343333  0.25533333  0.00000000
H        H    0.00163333  0.88506667  0.74466667  0.00000000
H        H    0.66830000  0.21840000  0.07800000  0.00000000
H        H    0.66503333  0.44826667  0.58866667  0.00000000
H        H    0.21840000  0.55010000  0.92200000  0.00000000
H        H    0.33496667  0.55173333  0.41133333  0.00000000
H        H    0.88343333  0.99836667  0.74466667  0.00000000
H        H    0.55173333  0.21676667  0.58866667  0.00000000
N        N    0.98093333  0.32556667  0.42336667  0.00000000
N        N    0.32203333  0.31426667  0.90996667  0.00000000
N        N    0.64760000  0.65890000  0.75670000  0.00000000
N        N    0.01906667  0.67443333  0.57663333  0.00000000
N        N    0.65536667  0.98093333  0.57663333  0.00000000
N        N    0.34110000  0.98870000  0.75670000  0.00000000
N        N    0.98870000  0.64760000  0.24330000  0.00000000
N        N    0.31426667  0.99223333  0.09003333  0.00000000
N        N    0.35240000  0.34110000  0.24330000  0.00000000
N        N    0.00776667  0.32203333  0.09003333  0.00000000
N        N    0.67796667  0.68573333  0.09003333  0.00000000
N        N    0.99223333  0.67796667  0.90996667  0.00000000
N        N    0.65890000  0.01130000  0.24330000  0.00000000
N        N    0.67443333  0.65536667  0.42336667  0.00000000
N        N    0.01130000  0.35240000  0.75670000  0.00000000
N        N    0.32556667  0.34463333  0.57663333  0.00000000
N        N    0.68573333  0.00776667  0.90996667  0.00000000
N        N    0.34463333  0.01906667  0.42336667  0.00000000
N        N    0.92093333  0.41466667  0.35746667  0.00000000
N        N    0.17293333  0.25426667  0.97586667  0.00000000
N        N    0.58760000  0.74800000  0.69080000  0.00000000
N        N    0.07906667  0.58533333  0.64253333  0.00000000
N        N    0.50626667  0.92093333  0.64253333  0.00000000
N        N    0.25200000  0.83960000  0.69080000  0.00000000
N        N    0.83960000  0.58760000  0.30920000  0.00000000
N        N    0.25426667  0.08133333  0.02413333  0.00000000
N        N    0.41240000  0.25200000  0.30920000  0.00000000
N        N    0.91866667  0.17293333  0.02413333  0.00000000
N        N    0.82706667  0.74573333  0.02413333  0.00000000
N        N    0.08133333  0.82706667  0.97586667  0.00000000
N        N    0.74800000  0.16040000  0.30920000  0.00000000
N        N    0.58533333  0.50626667  0.35746667  0.00000000
N        N    0.16040000  0.41240000  0.69080000  0.00000000
N        N    0.41466667  0.49373333  0.64253333  0.00000000
N        N    0.74573333  0.91866667  0.97586667  0.00000000
N        N    0.49373333  0.07906667  0.35746667  0.00000000
N        N    0.98543333  0.35146667  0.21816667  0.00000000
N        N    0.30063333  0.31876667  0.11516667  0.00000000
N        N    0.65210000  0.68480000  0.55150000  0.00000000
N        N    0.01456667  0.64853333  0.78183333  0.00000000
N        N    0.63396667  0.98543333  0.78183333  0.00000000
N        N    0.31520000  0.96730000  0.55150000  0.00000000
N        N    0.96730000  0.65210000  0.44850000  0.00000000
N        N    0.31876667  0.01813333  0.88483333  0.00000000
N        N    0.34790000  0.31520000  0.44850000  0.00000000
N        N    0.98186667  0.30063333  0.88483333  0.00000000
N        N    0.69936667  0.68123333  0.88483333  0.00000000
N        N    0.01813333  0.69936667  0.11516667  0.00000000
N        N    0.68480000  0.03270000  0.44850000  0.00000000
N        N    0.64853333  0.63396667  0.21816667  0.00000000
N        N    0.03270000  0.34790000  0.55150000  0.00000000
N        N    0.35146667  0.36603333  0.78183333  0.00000000
N        N    0.68123333  0.98186667  0.11516667  0.00000000
N        N    0.36603333  0.01456667  0.21816667  0.00000000
N        N    0.84453333  0.25896667  0.30056667  0.00000000
N        N    0.25223333  0.17786667  0.03276667  0.00000000
N        N    0.51120000  0.59230000  0.63390000  0.00000000
N        N    0.15546667  0.74103333  0.69943333  0.00000000
N        N    0.58556667  0.84453333  0.69943333  0.00000000
N        N    0.40770000  0.91890000  0.63390000  0.00000000
N        N    0.91890000  0.51120000  0.36610000  0.00000000
N        N    0.17786667  0.92563333  0.96723333  0.00000000
N        N    0.48880000  0.40770000  0.36610000  0.00000000
N        N    0.07436667  0.25223333  0.96723333  0.00000000
N        N    0.74776667  0.82213333  0.96723333  0.00000000
N        N    0.92563333  0.74776667  0.03276667  0.00000000
N        N    0.59230000  0.08110000  0.36610000  0.00000000
N        N    0.74103333  0.58556667  0.30056667  0.00000000
N        N    0.08110000  0.48880000  0.63390000  0.00000000
N        N    0.25896667  0.41443333  0.69943333  0.00000000
N        N    0.82213333  0.07436667  0.03276667  0.00000000
N        N    0.41443333  0.15546667  0.30056667  0.00000000
Zn       Zn   0.93476333  0.33856667  0.32506667  0.00000000
Zn       Zn   0.26286333  0.26809667  0.00826667  0.00000000
Zn       Zn   0.60143000  0.67190000  0.65840000  0.00000000
Zn       Zn   0.06523667  0.66143333  0.67493333  0.00000000
Zn       Zn   0.59619667  0.93476333  0.67493333  0.00000000
Zn       Zn   0.32810000  0.92953000  0.65840000  0.00000000
Zn       Zn   0.92953000  0.60143000  0.34160000  0.00000000
Zn       Zn   0.26809667  0.00523333  0.99173333  0.00000000
Zn       Zn   0.39857000  0.32810000  0.34160000  0.00000000
Zn       Zn   0.99476667  0.26286333  0.99173333  0.00000000
Zn       Zn   0.73713667  0.73190333  0.99173333  0.00000000
Zn       Zn   0.00523333  0.73713667  0.00826667  0.00000000
Zn       Zn   0.67190000  0.07047000  0.34160000  0.00000000
Zn       Zn   0.66143333  0.59619667  0.32506667  0.00000000
Zn       Zn   0.07047000  0.39857000  0.65840000  0.00000000
Zn       Zn   0.33856667  0.40380333  0.67493333  0.00000000
Zn       Zn   0.73190333  0.99476667  0.00826667  0.00000000
Zn       Zn   0.40380333  0.06523667  0.32506667  0.00000000
