data_ZIF-4

_cell_length_a  23.95476799
_cell_length_b  15.39500000
_cell_length_c  15.30730000
_cell_angle_alpha  90.00000000
_cell_angle_beta  129.71792440
_cell_angle_gamma  90.00000000


_symmetry_space_group_name_Hall ' P 1'
_symmetry_space_group_name_H-M  'P 1'
_symmetry_Int_Tables_number     1

loop_
_atom_site_label
_atom_site_type_symbol
_atom_site_fract_x
_atom_site_fract_y
_atom_site_fract_z
_atom_site_charge
C        C    0.86019000  0.14231000  0.12629000  0.00000000
H        H    0.84480000  0.17810000  0.06470000  0.00000000
C        C    0.90571000  0.10090000  0.29251000  0.00000000
H        H    0.92800000  0.10070000  0.37000000  0.00000000
C        C    0.88370000  0.02920000  0.22550000  0.00000000
H        H    0.88810000  0.97130000  0.24860000  0.00000000
C        C    0.78300000  0.30890000  0.26930000  0.00000000
H        H    0.75830000  0.26090000  0.22090000  0.00000000
C        C    0.89068000  0.38020000  0.06828000  0.00000000
H        H    0.93570000  0.36280000  0.09030000  0.00000000
C        C    0.80184000  0.40185000  0.06463000  0.00000000
H        H    0.77240000  0.40230000  0.08540000  0.00000000
C        C    0.95360000  0.89410000  0.10759000  0.00000000
H        H    0.97640000  0.93600000  0.16560000  0.00000000
C        C    0.66094000  0.92400000  0.79504000  0.00000000
H        H    0.65790000  0.94220000  0.73340000  0.00000000
C        C    0.86161000  0.09469000  0.87450000  0.00000000
H        H    0.90460000  0.06190000  0.91460000  0.00000000
C        C    0.75710000  0.13720000  0.80720000  0.00000000
H        H    0.71170000  0.14210000  0.78940000  0.00000000
C        C    0.07030000  0.27250000  0.47520000  0.00000000
H        H    0.06610000  0.21500000  0.49110000  0.00000000
C        C    0.86750000  0.81700000  0.96990000  0.00000000
H        H    0.82080000  0.79620000  0.91020000  0.00000000
N        N    0.89010000  0.17298000  0.22862000  0.00000000
N        N    0.85396000  0.05624000  0.11882000  0.00000000
N        N    0.01153000  0.32583000  0.38897000  0.00000000
N        N    0.85008000  0.33630000  0.31323000  0.00000000
N        N    0.86682000  0.36510000  0.12754000  0.00000000
N        N    0.88468000  0.89912000  0.01710000  0.00000000
N        N    0.71808000  0.93794000  0.90611000  0.00000000
N        N    0.80772000  0.07555000  0.87485000  0.00000000
Zn       Zn   0.90830200  0.29785000  0.26881200  0.00000000
Zn       Zn   0.81374300  0.99036500  0.97772300  0.00000000
C        C    0.36019000  0.35769000  0.09409000  0.00000000
H        H    0.34480000  0.32190000  0.12490000  0.00000000
C        C    0.40571000  0.39910000  0.01891000  0.00000000
H        H    0.42800000  0.39930000  0.98600000  0.00000000
C        C    0.38370000  0.47080000  0.04190000  0.00000000
H        H    0.38810000  0.52870000  0.02760000  0.00000000
C        C    0.28300000  0.19110000  0.79670000  0.00000000
H        H    0.25830000  0.23910000  0.79570000  0.00000000
C        C    0.39068000  0.11980000  0.21308000  0.00000000
H        H    0.43570000  0.13720000  0.28110000  0.00000000
C        C    0.30184000  0.09815000  0.03905000  0.00000000
H        H    0.27240000  0.09770000  0.95940000  0.00000000
C        C    0.45360000  0.60590000  0.29961000  0.00000000
H        H    0.47640000  0.56400000  0.28720000  0.00000000
C        C    0.16094000  0.57600000  0.02684000  0.00000000
H        H    0.15790000  0.55780000  0.08240000  0.00000000
C        C    0.36161000  0.40531000  0.34872000  0.00000000
H        H    0.40460000  0.43810000  0.39460000  0.00000000
C        C    0.25710000  0.36280000  0.20700000  0.00000000
H        H    0.21170000  0.35790000  0.13400000  0.00000000
C        C    0.37880000  0.66510000  0.31110000  0.00000000
H        H    0.33730000  0.67640000  0.30350000  0.00000000
C        C    0.55700000  0.20800000  0.11890000  0.00000000
H        H    0.54600000  0.25320000  0.06880000  0.00000000
N        N    0.39010000  0.32702000  0.05158000  0.00000000
N        N    0.35396000  0.44376000  0.08910000  0.00000000
N        N    0.51153000  0.17417000  0.13409000  0.00000000
N        N    0.35008000  0.16370000  0.88693000  0.00000000
N        N    0.36682000  0.13490000  0.10610000  0.00000000
N        N    0.38468000  0.60088000  0.25226000  0.00000000
N        N    0.21808000  0.56206000  0.03005000  0.00000000
N        N    0.30772000  0.42445000  0.24059000  0.00000000
Zn       Zn   0.40830200  0.20215000  0.04779200  0.00000000
Zn       Zn   0.31374300  0.50963500  0.14976300  0.00000000
C        C    0.13981000  0.64231000  0.37371000  0.00000000
H        H    0.15520000  0.67810000  0.43530000  0.00000000
C        C    0.09429000  0.60090000  0.20749000  0.00000000
H        H    0.07200000  0.60070000  0.13000000  0.00000000
C        C    0.11630000  0.52920000  0.27450000  0.00000000
H        H    0.11190000  0.47130000  0.25140000  0.00000000
C        C    0.21700000  0.80890000  0.23070000  0.00000000
H        H    0.24170000  0.76090000  0.27910000  0.00000000
C        C    0.10932000  0.88020000  0.43172000  0.00000000
H        H    0.06430000  0.86280000  0.40970000  0.00000000
C        C    0.19816000  0.90185000  0.43537000  0.00000000
H        H    0.22760000  0.90230000  0.41460000  0.00000000
C        C    0.04640000  0.39410000  0.39241000  0.00000000
H        H    0.02360000  0.43600000  0.33440000  0.00000000
C        C    0.33906000  0.42400000  0.70496000  0.00000000
H        H    0.34210000  0.44220000  0.76660000  0.00000000
C        C    0.13839000  0.59469000  0.62550000  0.00000000
H        H    0.09540000  0.56190000  0.58540000  0.00000000
C        C    0.24290000  0.63720000  0.69280000  0.00000000
H        H    0.28830000  0.64210000  0.71060000  0.00000000
C        C    0.92970000  0.77250000  0.02480000  0.00000000
H        H    0.93390000  0.71500000  0.00890000  0.00000000
C        C    0.13250000  0.31700000  0.53010000  0.00000000
H        H    0.17920000  0.29620000  0.58980000  0.00000000
N        N    0.10990000  0.67298000  0.27138000  0.00000000
N        N    0.14604000  0.55624000  0.38118000  0.00000000
N        N    0.98847000  0.82583000  0.11103000  0.00000000
N        N    0.14992000  0.83630000  0.18677000  0.00000000
N        N    0.13318000  0.86510000  0.37246000  0.00000000
N        N    0.11532000  0.39912000  0.48290000  0.00000000
N        N    0.28192000  0.43794000  0.59389000  0.00000000
N        N    0.19228000  0.57555000  0.62515000  0.00000000
Zn       Zn   0.09169800  0.79785000  0.23118800  0.00000000
Zn       Zn   0.18625700  0.49036500  0.52227700  0.00000000
C        C    0.63981000  0.85769000  0.40591000  0.00000000
H        H    0.65520000  0.82190000  0.37510000  0.00000000
C        C    0.59429000  0.89910000  0.48109000  0.00000000
H        H    0.57200000  0.89930000  0.51400000  0.00000000
C        C    0.61630000  0.97080000  0.45810000  0.00000000
H        H    0.61190000  0.02870000  0.47240000  0.00000000
C        C    0.71700000  0.69110000  0.70330000  0.00000000
H        H    0.74170000  0.73910000  0.70430000  0.00000000
C        C    0.60932000  0.61980000  0.28692000  0.00000000
H        H    0.56430000  0.63720000  0.21890000  0.00000000
C        C    0.69816000  0.59815000  0.46095000  0.00000000
H        H    0.72760000  0.59770000  0.54060000  0.00000000
C        C    0.54640000  0.10590000  0.20039000  0.00000000
H        H    0.52360000  0.06400000  0.21280000  0.00000000
C        C    0.83906000  0.07600000  0.47316000  0.00000000
H        H    0.84210000  0.05780000  0.41760000  0.00000000
C        C    0.63839000  0.90531000  0.15128000  0.00000000
H        H    0.59540000  0.93810000  0.10540000  0.00000000
C        C    0.74290000  0.86280000  0.29300000  0.00000000
H        H    0.78830000  0.85790000  0.36600000  0.00000000
C        C    0.62120000  0.16510000  0.18890000  0.00000000
H        H    0.66270000  0.17640000  0.19650000  0.00000000
C        C    0.44300000  0.70800000  0.38110000  0.00000000
H        H    0.45400000  0.75320000  0.43120000  0.00000000
N        N    0.60990000  0.82702000  0.44842000  0.00000000
N        N    0.64604000  0.94376000  0.41090000  0.00000000
N        N    0.48847000  0.67417000  0.36591000  0.00000000
N        N    0.64992000  0.66370000  0.61307000  0.00000000
N        N    0.63318000  0.63490000  0.39390000  0.00000000
N        N    0.61532000  0.10088000  0.24774000  0.00000000
N        N    0.78192000  0.06206000  0.46995000  0.00000000
N        N    0.69228000  0.92445000  0.25941000  0.00000000
Zn       Zn   0.59169800  0.70215000  0.45220800  0.00000000
Zn       Zn   0.68625700  0.00963500  0.35023700  0.00000000
C        C    0.13981000  0.85769000  0.87371000  0.00000000
H        H    0.15520000  0.82190000  0.93530000  0.00000000
C        C    0.09429000  0.89910000  0.70749000  0.00000000
H        H    0.07200000  0.89930000  0.63000000  0.00000000
C        C    0.11630000  0.97080000  0.77450000  0.00000000
H        H    0.11190000  0.02870000  0.75140000  0.00000000
C        C    0.21700000  0.69110000  0.73070000  0.00000000
H        H    0.24170000  0.73910000  0.77910000  0.00000000
C        C    0.10932000  0.61980000  0.93172000  0.00000000
H        H    0.06430000  0.63720000  0.90970000  0.00000000
C        C    0.19816000  0.59815000  0.93537000  0.00000000
H        H    0.22760000  0.59770000  0.91460000  0.00000000
C        C    0.04640000  0.10590000  0.89241000  0.00000000
H        H    0.02360000  0.06400000  0.83440000  0.00000000
C        C    0.33906000  0.07600000  0.20496000  0.00000000
H        H    0.34210000  0.05780000  0.26660000  0.00000000
C        C    0.13839000  0.90531000  0.12550000  0.00000000
H        H    0.09540000  0.93810000  0.08540000  0.00000000
C        C    0.24290000  0.86280000  0.19280000  0.00000000
H        H    0.28830000  0.85790000  0.21060000  0.00000000
C        C    0.92970000  0.72750000  0.52480000  0.00000000
H        H    0.93390000  0.78500000  0.50890000  0.00000000
C        C    0.13250000  0.18300000  0.03010000  0.00000000
H        H    0.17920000  0.20380000  0.08980000  0.00000000
N        N    0.10990000  0.82702000  0.77138000  0.00000000
N        N    0.14604000  0.94376000  0.88118000  0.00000000
N        N    0.98847000  0.67417000  0.61103000  0.00000000
N        N    0.14992000  0.66370000  0.68677000  0.00000000
N        N    0.13318000  0.63490000  0.87246000  0.00000000
N        N    0.11532000  0.10088000  0.98290000  0.00000000
N        N    0.28192000  0.06206000  0.09389000  0.00000000
N        N    0.19228000  0.92445000  0.12515000  0.00000000
Zn       Zn   0.09169800  0.70215000  0.73118800  0.00000000
Zn       Zn   0.18625700  0.00963500  0.02227700  0.00000000
C        C    0.63981000  0.64231000  0.90591000  0.00000000
H        H    0.65520000  0.67810000  0.87510000  0.00000000
C        C    0.59429000  0.60090000  0.98109000  0.00000000
H        H    0.57200000  0.60070000  0.01400000  0.00000000
C        C    0.61630000  0.52920000  0.95810000  0.00000000
H        H    0.61190000  0.47130000  0.97240000  0.00000000
C        C    0.71700000  0.80890000  0.20330000  0.00000000
H        H    0.74170000  0.76090000  0.20430000  0.00000000
C        C    0.60932000  0.88020000  0.78692000  0.00000000
H        H    0.56430000  0.86280000  0.71890000  0.00000000
C        C    0.69816000  0.90185000  0.96095000  0.00000000
H        H    0.72760000  0.90230000  0.04060000  0.00000000
C        C    0.54640000  0.39410000  0.70039000  0.00000000
H        H    0.52360000  0.43600000  0.71280000  0.00000000
C        C    0.83906000  0.42400000  0.97316000  0.00000000
H        H    0.84210000  0.44220000  0.91760000  0.00000000
C        C    0.63839000  0.59469000  0.65128000  0.00000000
H        H    0.59540000  0.56190000  0.60540000  0.00000000
C        C    0.74290000  0.63720000  0.79300000  0.00000000
H        H    0.78830000  0.64210000  0.86600000  0.00000000
C        C    0.62120000  0.33490000  0.68890000  0.00000000
H        H    0.66270000  0.32360000  0.69650000  0.00000000
C        C    0.44300000  0.79200000  0.88110000  0.00000000
H        H    0.45400000  0.74680000  0.93120000  0.00000000
N        N    0.60990000  0.67298000  0.94842000  0.00000000
N        N    0.64604000  0.55624000  0.91090000  0.00000000
N        N    0.48847000  0.82583000  0.86591000  0.00000000
N        N    0.64992000  0.83630000  0.11307000  0.00000000
N        N    0.63318000  0.86510000  0.89390000  0.00000000
N        N    0.61532000  0.39912000  0.74774000  0.00000000
N        N    0.78192000  0.43794000  0.96995000  0.00000000
N        N    0.69228000  0.57555000  0.75941000  0.00000000
Zn       Zn   0.59169800  0.79785000  0.95220800  0.00000000
Zn       Zn   0.68625700  0.49036500  0.85023700  0.00000000
C        C    0.86019000  0.35769000  0.62629000  0.00000000
H        H    0.84480000  0.32190000  0.56470000  0.00000000
C        C    0.90571000  0.39910000  0.79251000  0.00000000
H        H    0.92800000  0.39930000  0.87000000  0.00000000
C        C    0.88370000  0.47080000  0.72550000  0.00000000
H        H    0.88810000  0.52870000  0.74860000  0.00000000
C        C    0.78300000  0.19110000  0.76930000  0.00000000
H        H    0.75830000  0.23910000  0.72090000  0.00000000
C        C    0.89068000  0.11980000  0.56828000  0.00000000
H        H    0.93570000  0.13720000  0.59030000  0.00000000
C        C    0.80184000  0.09815000  0.56463000  0.00000000
H        H    0.77240000  0.09770000  0.58540000  0.00000000
C        C    0.95360000  0.60590000  0.60759000  0.00000000
H        H    0.97640000  0.56400000  0.66560000  0.00000000
C        C    0.66094000  0.57600000  0.29504000  0.00000000
H        H    0.65790000  0.55780000  0.23340000  0.00000000
C        C    0.86161000  0.40531000  0.37450000  0.00000000
H        H    0.90460000  0.43810000  0.41460000  0.00000000
C        C    0.75710000  0.36280000  0.30720000  0.00000000
H        H    0.71170000  0.35790000  0.28940000  0.00000000
C        C    0.07030000  0.22750000  0.97520000  0.00000000
H        H    0.06610000  0.28500000  0.99110000  0.00000000
C        C    0.86750000  0.68300000  0.46990000  0.00000000
H        H    0.82080000  0.70380000  0.41020000  0.00000000
N        N    0.89010000  0.32702000  0.72862000  0.00000000
N        N    0.85396000  0.44376000  0.61882000  0.00000000
N        N    0.01153000  0.17417000  0.88897000  0.00000000
N        N    0.85008000  0.16370000  0.81323000  0.00000000
N        N    0.86682000  0.13490000  0.62754000  0.00000000
N        N    0.88468000  0.60088000  0.51710000  0.00000000
N        N    0.71808000  0.56206000  0.40611000  0.00000000
N        N    0.80772000  0.42445000  0.37485000  0.00000000
Zn       Zn   0.90830200  0.20215000  0.76881200  0.00000000
Zn       Zn   0.81374300  0.50963500  0.47772300  0.00000000
C        C    0.36019000  0.14231000  0.59409000  0.00000000
H        H    0.34480000  0.17810000  0.62490000  0.00000000
C        C    0.40571000  0.10090000  0.51891000  0.00000000
H        H    0.42800000  0.10070000  0.48600000  0.00000000
C        C    0.38370000  0.02920000  0.54190000  0.00000000
H        H    0.38810000  0.97130000  0.52760000  0.00000000
C        C    0.28300000  0.30890000  0.29670000  0.00000000
H        H    0.25830000  0.26090000  0.29570000  0.00000000
C        C    0.39068000  0.38020000  0.71308000  0.00000000
H        H    0.43570000  0.36280000  0.78110000  0.00000000
C        C    0.30184000  0.40185000  0.53905000  0.00000000
H        H    0.27240000  0.40230000  0.45940000  0.00000000
C        C    0.45360000  0.89410000  0.79961000  0.00000000
H        H    0.47640000  0.93600000  0.78720000  0.00000000
C        C    0.16094000  0.92400000  0.52684000  0.00000000
H        H    0.15790000  0.94220000  0.58240000  0.00000000
C        C    0.36161000  0.09469000  0.84872000  0.00000000
H        H    0.40460000  0.06190000  0.89460000  0.00000000
C        C    0.25710000  0.13720000  0.70700000  0.00000000
H        H    0.21170000  0.14210000  0.63400000  0.00000000
C        C    0.37880000  0.83490000  0.81110000  0.00000000
H        H    0.33730000  0.82360000  0.80350000  0.00000000
C        C    0.55700000  0.29200000  0.61890000  0.00000000
H        H    0.54600000  0.24680000  0.56880000  0.00000000
N        N    0.39010000  0.17298000  0.55158000  0.00000000
N        N    0.35396000  0.05624000  0.58910000  0.00000000
N        N    0.51153000  0.32583000  0.63409000  0.00000000
N        N    0.35008000  0.33630000  0.38693000  0.00000000
N        N    0.36682000  0.36510000  0.60610000  0.00000000
N        N    0.38468000  0.89912000  0.75226000  0.00000000
N        N    0.21808000  0.93794000  0.53005000  0.00000000
N        N    0.30772000  0.07555000  0.74059000  0.00000000
Zn       Zn   0.40830200  0.29785000  0.54779200  0.00000000
Zn       Zn   0.31374300  0.99036500  0.64976300  0.00000000
