data_ZIF-7

_cell_length_a  14.27489845
_cell_length_b  14.27489845
_cell_length_c  14.27489845
_cell_angle_alpha  107.26391167
_cell_angle_beta  107.26391167
_cell_angle_gamma  107.26391167


_symmetry_space_group_name_Hall ' P 1'
_symmetry_space_group_name_H-M  'P 1'
_symmetry_Int_Tables_number     1

loop_
_atom_site_label
_atom_site_type_symbol
_atom_site_fract_x
_atom_site_fract_y
_atom_site_fract_z
_atom_site_charge
C        C    0.12420000  0.49470000  0.85220000  0.00000000
C        C    0.50530000  0.14780000  0.87580000  0.00000000
C        C    0.87580000  0.50530000  0.14780000  0.00000000
C        C    0.85220000  0.12420000  0.49470000  0.00000000
C        C    0.49470000  0.85220000  0.12420000  0.00000000
C        C    0.14780000  0.87580000  0.50530000  0.00000000
H        H    0.08980000  0.49590000  0.89830000  0.00000000
H        H    0.50410000  0.10170000  0.91020000  0.00000000
H        H    0.91020000  0.50410000  0.10170000  0.00000000
H        H    0.89830000  0.08980000  0.49590000  0.00000000
H        H    0.49590000  0.89830000  0.08980000  0.00000000
H        H    0.10170000  0.91020000  0.50410000  0.00000000
C        C    0.16480000  0.43720000  0.71880000  0.00000000
C        C    0.56280000  0.28120000  0.83520000  0.00000000
C        C    0.83520000  0.56280000  0.28120000  0.00000000
C        C    0.71880000  0.16480000  0.43720000  0.00000000
C        C    0.43720000  0.71880000  0.16480000  0.00000000
C        C    0.28120000  0.83520000  0.56280000  0.00000000
C        C    0.17490000  0.37930000  0.62920000  0.00000000
C        C    0.62070000  0.37080000  0.82510000  0.00000000
C        C    0.82510000  0.62070000  0.37080000  0.00000000
C        C    0.62920000  0.17490000  0.37930000  0.00000000
C        C    0.37930000  0.62920000  0.17490000  0.00000000
C        C    0.37080000  0.82510000  0.62070000  0.00000000
H        H    0.13160000  0.30570000  0.58830000  0.00000000
H        H    0.69430000  0.41170000  0.86840000  0.00000000
H        H    0.86840000  0.69430000  0.41170000  0.00000000
H        H    0.58830000  0.13160000  0.30570000  0.00000000
H        H    0.30570000  0.58830000  0.13160000  0.00000000
H        H    0.41170000  0.86840000  0.69430000  0.00000000
C        C    0.25130000  0.43510000  0.60260000  0.00000000
C        C    0.56490000  0.39740000  0.74870000  0.00000000
C        C    0.74870000  0.56490000  0.39740000  0.00000000
C        C    0.60260000  0.25130000  0.43510000  0.00000000
C        C    0.43510000  0.60260000  0.25130000  0.00000000
C        C    0.39740000  0.74870000  0.56490000  0.00000000
H        H    0.25950000  0.39840000  0.54200000  0.00000000
H        H    0.60160000  0.45800000  0.74050000  0.00000000
H        H    0.74050000  0.60160000  0.45800000  0.00000000
H        H    0.54200000  0.25950000  0.39840000  0.00000000
H        H    0.39840000  0.54200000  0.25950000  0.00000000
H        H    0.45800000  0.74050000  0.60160000  0.00000000
C        C    0.31860000  0.54730000  0.66520000  0.00000000
C        C    0.45270000  0.33480000  0.68140000  0.00000000
C        C    0.68140000  0.45270000  0.33480000  0.00000000
C        C    0.66520000  0.31860000  0.54730000  0.00000000
C        C    0.54730000  0.66520000  0.31860000  0.00000000
C        C    0.33480000  0.68140000  0.45270000  0.00000000
H        H    0.36950000  0.58250000  0.64450000  0.00000000
H        H    0.41750000  0.35550000  0.63050000  0.00000000
H        H    0.63050000  0.41750000  0.35550000  0.00000000
H        H    0.64450000  0.36950000  0.58250000  0.00000000
H        H    0.58250000  0.64450000  0.36950000  0.00000000
H        H    0.35550000  0.63050000  0.41750000  0.00000000
C        C    0.78110000  0.23150000  0.54860000  0.00000000
C        C    0.76850000  0.45140000  0.21890000  0.00000000
C        C    0.21890000  0.76850000  0.45140000  0.00000000
C        C    0.54860000  0.78110000  0.23150000  0.00000000
C        C    0.23150000  0.54860000  0.78110000  0.00000000
C        C    0.45140000  0.21890000  0.76850000  0.00000000
C        C    0.75530000  0.30990000  0.60460000  0.00000000
C        C    0.69010000  0.39540000  0.24470000  0.00000000
C        C    0.24470000  0.69010000  0.39540000  0.00000000
C        C    0.60460000  0.75530000  0.30990000  0.00000000
C        C    0.30990000  0.60460000  0.75530000  0.00000000
C        C    0.39540000  0.24470000  0.69010000  0.00000000
H        H    0.79740000  0.35470000  0.67790000  0.00000000
H        H    0.64530000  0.32210000  0.20260000  0.00000000
H        H    0.20260000  0.64530000  0.32210000  0.00000000
H        H    0.67790000  0.79740000  0.35470000  0.00000000
H        H    0.35470000  0.67790000  0.79740000  0.00000000
H        H    0.32210000  0.20260000  0.64530000  0.00000000
C        C    0.13860000  0.14800000  0.73270000  0.00000000
C        C    0.85200000  0.26730000  0.86140000  0.00000000
C        C    0.86140000  0.85200000  0.26730000  0.00000000
C        C    0.73270000  0.13860000  0.14800000  0.00000000
C        C    0.14800000  0.73270000  0.13860000  0.00000000
C        C    0.26730000  0.86140000  0.85200000  0.00000000
H        H    0.19740000  0.21150000  0.75230000  0.00000000
H        H    0.78850000  0.24770000  0.80260000  0.00000000
H        H    0.80260000  0.78850000  0.24770000  0.00000000
H        H    0.75230000  0.19740000  0.21150000  0.00000000
H        H    0.21150000  0.75230000  0.19740000  0.00000000
H        H    0.24770000  0.80260000  0.78850000  0.00000000
C        C    0.97910000  0.03950000  0.68960000  0.00000000
C        C    0.96050000  0.31040000  0.02090000  0.00000000
C        C    0.02090000  0.96050000  0.31040000  0.00000000
C        C    0.68960000  0.97910000  0.03950000  0.00000000
C        C    0.03950000  0.68960000  0.97910000  0.00000000
C        C    0.31040000  0.02090000  0.96050000  0.00000000
C        C    0.86620000  0.98410000  0.65990000  0.00000000
C        C    0.01590000  0.34010000  0.13380000  0.00000000
C        C    0.13380000  0.01590000  0.34010000  0.00000000
C        C    0.65990000  0.86620000  0.98410000  0.00000000
C        C    0.98410000  0.65990000  0.86620000  0.00000000
C        C    0.34010000  0.13380000  0.01590000  0.00000000
H        H    0.82180000  0.02020000  0.65530000  0.00000000
H        H    0.97980000  0.34470000  0.17820000  0.00000000
H        H    0.17820000  0.97980000  0.34470000  0.00000000
H        H    0.65530000  0.82180000  0.02020000  0.00000000
H        H    0.02020000  0.65530000  0.82180000  0.00000000
H        H    0.34470000  0.17820000  0.97980000  0.00000000
C        C    0.01570000  0.30710000  0.95720000  0.00000000
C        C    0.69290000  0.04280000  0.98430000  0.00000000
C        C    0.98430000  0.69290000  0.04280000  0.00000000
C        C    0.95720000  0.01570000  0.30710000  0.00000000
C        C    0.30710000  0.95720000  0.01570000  0.00000000
C        C    0.04280000  0.98430000  0.69290000  0.00000000
C        C    0.12930000  0.33060000  0.99950000  0.00000000
C        C    0.66940000  0.00050000  0.87070000  0.00000000
C        C    0.87070000  0.66940000  0.00050000  0.00000000
C        C    0.99950000  0.12930000  0.33060000  0.00000000
C        C    0.33060000  0.99950000  0.12930000  0.00000000
C        C    0.00050000  0.87070000  0.66940000  0.00000000
H        H    0.16630000  0.32840000  0.95570000  0.00000000
H        H    0.67160000  0.04430000  0.83370000  0.00000000
H        H    0.83370000  0.67160000  0.04430000  0.00000000
H        H    0.95570000  0.16630000  0.32840000  0.00000000
H        H    0.32840000  0.95570000  0.16630000  0.00000000
H        H    0.04430000  0.83370000  0.67160000  0.00000000
C        C    0.82520000  0.87750000  0.63860000  0.00000000
C        C    0.12250000  0.36140000  0.17480000  0.00000000
C        C    0.17480000  0.12250000  0.36140000  0.00000000
C        C    0.63860000  0.82520000  0.87750000  0.00000000
C        C    0.87750000  0.63860000  0.82520000  0.00000000
C        C    0.36140000  0.17480000  0.12250000  0.00000000
H        H    0.75200000  0.84160000  0.62050000  0.00000000
H        H    0.15840000  0.37950000  0.24800000  0.00000000
H        H    0.24800000  0.15840000  0.37950000  0.00000000
H        H    0.62050000  0.75200000  0.84160000  0.00000000
H        H    0.84160000  0.62050000  0.75200000  0.00000000
H        H    0.37950000  0.24800000  0.15840000  0.00000000
C        C    0.18080000  0.35710000  0.10960000  0.00000000
C        C    0.64290000  0.89040000  0.81920000  0.00000000
C        C    0.81920000  0.64290000  0.89040000  0.00000000
C        C    0.10960000  0.18080000  0.35710000  0.00000000
C        C    0.35710000  0.10960000  0.18080000  0.00000000
C        C    0.89040000  0.81920000  0.64290000  0.00000000
H        H    0.25370000  0.37190000  0.14040000  0.00000000
H        H    0.62810000  0.85960000  0.74630000  0.00000000
H        H    0.74630000  0.62810000  0.85960000  0.00000000
H        H    0.14040000  0.25370000  0.37190000  0.00000000
H        H    0.37190000  0.14040000  0.25370000  0.00000000
H        H    0.85960000  0.74630000  0.62810000  0.00000000
N        N    0.09780000  0.40430000  0.76800000  0.00000000
N        N    0.59570000  0.23200000  0.90220000  0.00000000
N        N    0.90220000  0.59570000  0.23200000  0.00000000
N        N    0.76800000  0.09780000  0.40430000  0.00000000
N        N    0.40430000  0.76800000  0.09780000  0.00000000
N        N    0.23200000  0.90220000  0.59570000  0.00000000
N        N    0.94280000  0.27840000  0.85120000  0.00000000
N        N    0.72160000  0.14880000  0.05720000  0.00000000
N        N    0.05720000  0.72160000  0.14880000  0.00000000
N        N    0.85120000  0.94280000  0.27840000  0.00000000
N        N    0.27840000  0.85120000  0.94280000  0.00000000
N        N    0.14880000  0.05720000  0.72160000  0.00000000
N        N    0.86670000  0.20360000  0.58420000  0.00000000
N        N    0.79640000  0.41580000  0.13330000  0.00000000
N        N    0.13330000  0.79640000  0.41580000  0.00000000
N        N    0.58420000  0.86670000  0.20360000  0.00000000
N        N    0.20360000  0.58420000  0.86670000  0.00000000
N        N    0.41580000  0.13330000  0.79640000  0.00000000
N        N    0.04160000  0.14510000  0.71500000  0.00000000
N        N    0.85490000  0.28500000  0.95840000  0.00000000
N        N    0.95840000  0.85490000  0.28500000  0.00000000
N        N    0.71500000  0.04160000  0.14510000  0.00000000
N        N    0.14510000  0.71500000  0.04160000  0.00000000
N        N    0.28500000  0.95840000  0.85490000  0.00000000
Zn       Zn   0.98650000  0.25983000  0.72887000  0.00000000
Zn       Zn   0.74017000  0.27113000  0.01350000  0.00000000
Zn       Zn   0.01350000  0.74017000  0.27113000  0.00000000
Zn       Zn   0.72887000  0.98650000  0.25983000  0.00000000
Zn       Zn   0.25983000  0.72887000  0.98650000  0.00000000
Zn       Zn   0.27113000  0.01350000  0.74017000  0.00000000
