data_ZIF-77

_cell_length_a  17.63227474
_cell_length_b  17.63227474
_cell_length_c  17.63227474
_cell_angle_alpha  143.22198868
_cell_angle_beta  101.35376428
_cell_angle_gamma  90.12447901


_symmetry_space_group_name_Hall ' P 1'
_symmetry_space_group_name_H-M  'P 1'
_symmetry_Int_Tables_number     1

loop_
_atom_site_label
_atom_site_type_symbol
_atom_site_fract_x
_atom_site_fract_y
_atom_site_fract_z
_atom_site_charge
Zn       Zn   0.82287000  0.40621000  0.97802000  0.00000000
Zn       Zn   0.92819000  0.90621000  0.58334000  0.00000000
Zn       Zn   0.67713000  0.65515000  0.58334000  0.00000000
Zn       Zn   0.42819000  0.84485000  0.02198000  0.00000000
Zn       Zn   0.17713000  0.59379000  0.02198000  0.00000000
Zn       Zn   0.57181000  0.15515000  0.97802000  0.00000000
Zn       Zn   0.07181000  0.09379000  0.41666000  0.00000000
Zn       Zn   0.32287000  0.34485000  0.41666000  0.00000000
Zn       Zn   0.25000000  0.25000000  0.00000000  0.00000000
Zn       Zn   0.75000000  0.75000000  0.00000000  0.00000000
O        O    0.89318000  0.67543000  0.00095000  0.00000000
O        O    0.17448000  0.17543000  0.78225000  0.00000000
O        O    0.60682000  0.60777000  0.78225000  0.00000000
O        O    0.67448000  0.89223000  0.99905000  0.00000000
O        O    0.10682000  0.32457000  0.99905000  0.00000000
O        O    0.32552000  0.10777000  0.00095000  0.00000000
O        O    0.82552000  0.82457000  0.21775000  0.00000000
O        O    0.39318000  0.39223000  0.21775000  0.00000000
O        O    0.92032000  0.54270000  0.98382000  0.00000000
O        O    0.05888000  0.04270000  0.62238000  0.00000000
O        O    0.57968000  0.56350000  0.62238000  0.00000000
O        O    0.55888000  0.93650000  0.01618000  0.00000000
O        O    0.07968000  0.45730000  0.01618000  0.00000000
O        O    0.44112000  0.06350000  0.98382000  0.00000000
O        O    0.94112000  0.95730000  0.37762000  0.00000000
O        O    0.42032000  0.43650000  0.37762000  0.00000000
O        O    0.74087000  0.61443000  0.16144000  0.00000000
O        O    0.95299000  0.11443000  0.87356000  0.00000000
O        O    0.75913000  0.92057000  0.87356000  0.00000000
O        O    0.45299000  0.57943000  0.83856000  0.00000000
O        O    0.25913000  0.38557000  0.83856000  0.00000000
O        O    0.54701000  0.42057000  0.16144000  0.00000000
O        O    0.04701000  0.88557000  0.12644000  0.00000000
O        O    0.24087000  0.07943000  0.12644000  0.00000000
O        O    0.67931000  0.16467000  0.75704000  0.00000000
O        O    0.90763000  0.66467000  0.48536000  0.00000000
O        O    0.82069000  0.57773000  0.48536000  0.00000000
O        O    0.40763000  0.92227000  0.24296000  0.00000000
O        O    0.32069000  0.83533000  0.24296000  0.00000000
O        O    0.59237000  0.07773000  0.75704000  0.00000000
O        O    0.09237000  0.33533000  0.51464000  0.00000000
O        O    0.17931000  0.42227000  0.51464000  0.00000000
O        O    0.78309000  0.80296000  0.37853000  0.00000000
O        O    0.92443000  0.30296000  0.01987000  0.00000000
O        O    0.71691000  0.09544000  0.01987000  0.00000000
O        O    0.42443000  0.40456000  0.62147000  0.00000000
O        O    0.21691000  0.19704000  0.62147000  0.00000000
O        O    0.57557000  0.59544000  0.37853000  0.00000000
O        O    0.07557000  0.69704000  0.98013000  0.00000000
O        O    0.28309000  0.90456000  0.98013000  0.00000000
N        N    0.73392000  0.58219000  0.92333000  0.00000000
N        N    0.15886000  0.08219000  0.84827000  0.00000000
N        N    0.76608000  0.68941000  0.84827000  0.00000000
N        N    0.65886000  0.81059000  0.07667000  0.00000000
N        N    0.26608000  0.41781000  0.07667000  0.00000000
N        N    0.34114000  0.18941000  0.92333000  0.00000000
N        N    0.84114000  0.91781000  0.15173000  0.00000000
N        N    0.23392000  0.31059000  0.15173000  0.00000000
N        N    0.76078000  0.44213000  0.90265000  0.00000000
N        N    0.03948000  0.94213000  0.68135000  0.00000000
N        N    0.73922000  0.64187000  0.68135000  0.00000000
N        N    0.53948000  0.85813000  0.09735000  0.00000000
N        N    0.23922000  0.55787000  0.09735000  0.00000000
N        N    0.46052000  0.14187000  0.90265000  0.00000000
N        N    0.96052000  0.05787000  0.31865000  0.00000000
N        N    0.26078000  0.35813000  0.31865000  0.00000000
N        N    0.87278000  0.58962000  0.97716000  0.00000000
N        N    0.11246000  0.08962000  0.71684000  0.00000000
N        N    0.62722000  0.60438000  0.71684000  0.00000000
N        N    0.61246000  0.89562000  0.02284000  0.00000000
N        N    0.12722000  0.41038000  0.02284000  0.00000000
N        N    0.38754000  0.10438000  0.97716000  0.00000000
N        N    0.88754000  0.91038000  0.28316000  0.00000000
N        N    0.37278000  0.39562000  0.28316000  0.00000000
N        N    0.76085000  0.34315000  0.01330000  0.00000000
N        N    0.82985000  0.84315000  0.58230000  0.00000000
N        N    0.73915000  0.75245000  0.58230000  0.00000000
N        N    0.32985000  0.74755000  0.98670000  0.00000000
N        N    0.23915000  0.65685000  0.98670000  0.00000000
N        N    0.67015000  0.25245000  0.01330000  0.00000000
N        N    0.17015000  0.15685000  0.41770000  0.00000000
N        N    0.26085000  0.24755000  0.41770000  0.00000000
N        N    0.84810000  0.66070000  0.50880000  0.00000000
N        N    0.65190000  0.16070000  0.81260000  0.00000000
N        N    0.15190000  0.33930000  0.49120000  0.00000000
N        N    0.34810000  0.83930000  0.18740000  0.00000000
N        N    0.89242000  0.58028000  0.16994000  0.00000000
N        N    0.91034000  0.08028000  0.68786000  0.00000000
N        N    0.60758000  0.77752000  0.68786000  0.00000000
N        N    0.41034000  0.72248000  0.83006000  0.00000000
N        N    0.10758000  0.41972000  0.83006000  0.00000000
N        N    0.58966000  0.27752000  0.16994000  0.00000000
N        N    0.08966000  0.91972000  0.31214000  0.00000000
N        N    0.39242000  0.22248000  0.31214000  0.00000000
N        N    0.93104000  0.76756000  0.39568000  0.00000000
N        N    0.87188000  0.26756000  0.83652000  0.00000000
N        N    0.56896000  0.96464000  0.83652000  0.00000000
N        N    0.37188000  0.53536000  0.60432000  0.00000000
N        N    0.06896000  0.23244000  0.60432000  0.00000000
N        N    0.62812000  0.46464000  0.39568000  0.00000000
N        N    0.12812000  0.73244000  0.16348000  0.00000000
N        N    0.43104000  0.03536000  0.16348000  0.00000000
N        N    0.79361000  0.70011000  0.27210000  0.00000000
N        N    0.92801000  0.20011000  0.90650000  0.00000000
N        N    0.70639000  0.97849000  0.90650000  0.00000000
N        N    0.42801000  0.52151000  0.72790000  0.00000000
N        N    0.20639000  0.29989000  0.72790000  0.00000000
N        N    0.57199000  0.47849000  0.27210000  0.00000000
N        N    0.07199000  0.79989000  0.09350000  0.00000000
N        N    0.29361000  0.02151000  0.09350000  0.00000000
C        C    0.66370000  0.50450000  0.87500000  0.00000000
C        C    0.12950000  0.00450000  0.84080000  0.00000000
C        C    0.83630000  0.71130000  0.84080000  0.00000000
C        C    0.62950000  0.78870000  0.12500000  0.00000000
C        C    0.33630000  0.49550000  0.12500000  0.00000000
C        C    0.37050000  0.21130000  0.87500000  0.00000000
C        C    0.87050000  0.99550000  0.15920000  0.00000000
C        C    0.16370000  0.28870000  0.15920000  0.00000000
H        H    0.61160000  0.50880000  0.85380000  0.00000000
H        H    0.15500000  0.00880000  0.89720000  0.00000000
H        H    0.88840000  0.74220000  0.89720000  0.00000000
H        H    0.65500000  0.75780000  0.14620000  0.00000000
H        H    0.38840000  0.49120000  0.14620000  0.00000000
H        H    0.34500000  0.24220000  0.85380000  0.00000000
H        H    0.84500000  0.99120000  0.10280000  0.00000000
H        H    0.11160000  0.25780000  0.10280000  0.00000000
C        C    0.67980000  0.41910000  0.86190000  0.00000000
C        C    0.05720000  0.91910000  0.73930000  0.00000000
C        C    0.82020000  0.68210000  0.73930000  0.00000000
C        C    0.55720000  0.81790000  0.13810000  0.00000000
C        C    0.32020000  0.58090000  0.13810000  0.00000000
C        C    0.44280000  0.18210000  0.86190000  0.00000000
C        C    0.94280000  0.08090000  0.26070000  0.00000000
C        C    0.17980000  0.31790000  0.26070000  0.00000000
H        H    0.64080000  0.35430000  0.82950000  0.00000000
H        H    0.02480000  0.85430000  0.71350000  0.00000000
H        H    0.85920000  0.68870000  0.71350000  0.00000000
H        H    0.52480000  0.81130000  0.17050000  0.00000000
H        H    0.35920000  0.64570000  0.17050000  0.00000000
H        H    0.47520000  0.18870000  0.82950000  0.00000000
H        H    0.97520000  0.14570000  0.28650000  0.00000000
H        H    0.14080000  0.31130000  0.28650000  0.00000000
C        C    0.78909000  0.53899000  0.93630000  0.00000000
C        C    0.10269000  0.03899000  0.74990000  0.00000000
C        C    0.71091000  0.64721000  0.74990000  0.00000000
C        C    0.60269000  0.85279000  0.06370000  0.00000000
C        C    0.21091000  0.46101000  0.06370000  0.00000000
C        C    0.39731000  0.14721000  0.93630000  0.00000000
C        C    0.89731000  0.96101000  0.25010000  0.00000000
C        C    0.28909000  0.35279000  0.25010000  0.00000000
C        C    0.80480000  0.75870000  0.56350000  0.00000000
C        C    0.69520000  0.25870000  0.95390000  0.00000000
C        C    0.19520000  0.24130000  0.43650000  0.00000000
C        C    0.30480000  0.74130000  0.04610000  0.00000000
C        C    0.78660000  0.41230000  0.14410000  0.00000000
C        C    0.76820000  0.91230000  0.62570000  0.00000000
C        C    0.71340000  0.85750000  0.62570000  0.00000000
C        C    0.26820000  0.64250000  0.85590000  0.00000000
C        C    0.21340000  0.58770000  0.85590000  0.00000000
C        C    0.73180000  0.35750000  0.14410000  0.00000000
C        C    0.23180000  0.08770000  0.37430000  0.00000000
C        C    0.28660000  0.14250000  0.37430000  0.00000000
H        H    0.83340000  0.48340000  0.21720000  0.00000000
H        H    0.76620000  0.98340000  0.65000000  0.00000000
H        H    0.66660000  0.88380000  0.65000000  0.00000000
H        H    0.26620000  0.61620000  0.78280000  0.00000000
H        H    0.16660000  0.51660000  0.78280000  0.00000000
H        H    0.73380000  0.38380000  0.21720000  0.00000000
H        H    0.23380000  0.01660000  0.35000000  0.00000000
H        H    0.33340000  0.11620000  0.35000000  0.00000000
C        C    0.87217000  0.68227000  0.27990000  0.00000000
C        C    0.90237000  0.18227000  0.81010000  0.00000000
C        C    0.62783000  0.90773000  0.81010000  0.00000000
C        C    0.40237000  0.59227000  0.72010000  0.00000000
C        C    0.12783000  0.31773000  0.72010000  0.00000000
C        C    0.59763000  0.40773000  0.27990000  0.00000000
C        C    0.09763000  0.81773000  0.18990000  0.00000000
C        C    0.37217000  0.09227000  0.18990000  0.00000000
C        C    0.99490000  0.71820000  0.35830000  0.00000000
C        C    0.85990000  0.21820000  0.72330000  0.00000000
C        C    0.50510000  0.86340000  0.72330000  0.00000000
C        C    0.35990000  0.63660000  0.64170000  0.00000000
C        C    0.00510000  0.28180000  0.64170000  0.00000000
C        C    0.64010000  0.36340000  0.35830000  0.00000000
C        C    0.14010000  0.78180000  0.27670000  0.00000000
C        C    0.49490000  0.13660000  0.27670000  0.00000000
H        H    0.04770000  0.75650000  0.41800000  0.00000000
H        H    0.83850000  0.25650000  0.70880000  0.00000000
H        H    0.45230000  0.87030000  0.70880000  0.00000000
H        H    0.33850000  0.62970000  0.58200000  0.00000000
H        H    0.95230000  0.24350000  0.58200000  0.00000000
H        H    0.66150000  0.37030000  0.41800000  0.00000000
H        H    0.16150000  0.74350000  0.29120000  0.00000000
H        H    0.54770000  0.12970000  0.29120000  0.00000000
C        C    0.97150000  0.60500000  0.22210000  0.00000000
C        C    0.88290000  0.10500000  0.63350000  0.00000000
C        C    0.52850000  0.75060000  0.63350000  0.00000000
C        C    0.38290000  0.74940000  0.77790000  0.00000000
C        C    0.02850000  0.39500000  0.77790000  0.00000000
C        C    0.61710000  0.25060000  0.22210000  0.00000000
C        C    0.11710000  0.89500000  0.36650000  0.00000000
C        C    0.47150000  0.24940000  0.36650000  0.00000000
H        H    0.00540000  0.55190000  0.17170000  0.00000000
H        H    0.88020000  0.05190000  0.54650000  0.00000000
H        H    0.49460000  0.66630000  0.54650000  0.00000000
H        H    0.38020000  0.83370000  0.82830000  0.00000000
H        H    0.99460000  0.44810000  0.82830000  0.00000000
H        H    0.61980000  0.16630000  0.17170000  0.00000000
H        H    0.11980000  0.94810000  0.45350000  0.00000000
H        H    0.50540000  0.33370000  0.45350000  0.00000000
