data_ZIF-9

_cell_length_a  14.24861833
_cell_length_b  14.24861833
_cell_length_c  14.24861833
_cell_angle_alpha  107.24372465
_cell_angle_beta  107.24372465
_cell_angle_gamma  107.24372465


_symmetry_space_group_name_Hall ' P 1'
_symmetry_space_group_name_H-M  'P 1'
_symmetry_Int_Tables_number     1

loop_
_atom_site_label
_atom_site_type_symbol
_atom_site_fract_x
_atom_site_fract_y
_atom_site_fract_z
_atom_site_charge
C        C    0.12500000  0.85320000  0.49500000  0.00000000
C        C    0.14680000  0.50500000  0.87500000  0.00000000
C        C    0.87500000  0.14680000  0.50500000  0.00000000
C        C    0.49500000  0.12500000  0.85320000  0.00000000
C        C    0.85320000  0.49500000  0.12500000  0.00000000
C        C    0.50500000  0.87500000  0.14680000  0.00000000
H        H    0.09090000  0.89960000  0.49530000  0.00000000
H        H    0.10040000  0.50470000  0.90910000  0.00000000
H        H    0.90910000  0.10040000  0.50470000  0.00000000
H        H    0.49530000  0.09090000  0.89960000  0.00000000
H        H    0.89960000  0.49530000  0.09090000  0.00000000
H        H    0.50470000  0.90910000  0.10040000  0.00000000
C        C    0.16770000  0.72220000  0.43990000  0.00000000
C        C    0.27780000  0.56010000  0.83230000  0.00000000
C        C    0.83230000  0.27780000  0.56010000  0.00000000
C        C    0.43990000  0.16770000  0.72220000  0.00000000
C        C    0.72220000  0.43990000  0.16770000  0.00000000
C        C    0.56010000  0.83230000  0.27780000  0.00000000
C        C    0.17560000  0.62920000  0.38100000  0.00000000
C        C    0.37080000  0.61900000  0.82440000  0.00000000
C        C    0.82440000  0.37080000  0.61900000  0.00000000
C        C    0.38100000  0.17560000  0.62920000  0.00000000
C        C    0.62920000  0.38100000  0.17560000  0.00000000
C        C    0.61900000  0.82440000  0.37080000  0.00000000
H        H    0.13090000  0.58680000  0.30760000  0.00000000
H        H    0.41320000  0.69240000  0.86910000  0.00000000
H        H    0.86910000  0.41320000  0.69240000  0.00000000
H        H    0.30760000  0.13090000  0.58680000  0.00000000
H        H    0.58680000  0.30760000  0.13090000  0.00000000
H        H    0.69240000  0.86910000  0.41320000  0.00000000
C        C    0.25310000  0.60490000  0.43850000  0.00000000
C        C    0.39510000  0.56150000  0.74690000  0.00000000
C        C    0.74690000  0.39510000  0.56150000  0.00000000
C        C    0.43850000  0.25310000  0.60490000  0.00000000
C        C    0.60490000  0.43850000  0.25310000  0.00000000
C        C    0.56150000  0.74690000  0.39510000  0.00000000
H        H    0.26260000  0.54500000  0.40190000  0.00000000
H        H    0.45500000  0.59810000  0.73740000  0.00000000
H        H    0.73740000  0.45500000  0.59810000  0.00000000
H        H    0.40190000  0.26260000  0.54500000  0.00000000
H        H    0.54500000  0.40190000  0.26260000  0.00000000
H        H    0.59810000  0.73740000  0.45500000  0.00000000
C        C    0.85260000  0.86120000  0.26800000  0.00000000
C        C    0.13880000  0.73200000  0.14740000  0.00000000
C        C    0.14740000  0.13880000  0.73200000  0.00000000
C        C    0.26800000  0.85260000  0.86120000  0.00000000
C        C    0.86120000  0.26800000  0.85260000  0.00000000
C        C    0.73200000  0.14740000  0.13880000  0.00000000
H        H    0.78900000  0.80130000  0.24630000  0.00000000
H        H    0.19870000  0.75370000  0.21100000  0.00000000
H        H    0.21100000  0.19870000  0.75370000  0.00000000
H        H    0.24630000  0.78900000  0.80130000  0.00000000
H        H    0.80130000  0.24630000  0.78900000  0.00000000
H        H    0.75370000  0.21100000  0.19870000  0.00000000
C        C    0.01880000  0.95800000  0.31010000  0.00000000
C        C    0.04200000  0.68990000  0.98120000  0.00000000
C        C    0.98120000  0.04200000  0.68990000  0.00000000
C        C    0.31010000  0.01880000  0.95800000  0.00000000
C        C    0.95800000  0.31010000  0.01880000  0.00000000
C        C    0.68990000  0.98120000  0.04200000  0.00000000
C        C    0.12760000  0.99940000  0.33300000  0.00000000
C        C    0.00060000  0.66700000  0.87240000  0.00000000
C        C    0.87240000  0.00060000  0.66700000  0.00000000
C        C    0.33300000  0.12760000  0.99940000  0.00000000
C        C    0.99940000  0.33300000  0.12760000  0.00000000
C        C    0.66700000  0.87240000  0.00060000  0.00000000
H        H    0.16490000  0.95560000  0.33080000  0.00000000
H        H    0.04440000  0.66920000  0.83510000  0.00000000
H        H    0.83510000  0.04440000  0.66920000  0.00000000
H        H    0.33080000  0.16490000  0.95560000  0.00000000
H        H    0.95560000  0.33080000  0.16490000  0.00000000
H        H    0.66920000  0.83510000  0.04440000  0.00000000
C        C    0.17890000  0.10770000  0.35910000  0.00000000
C        C    0.89230000  0.64090000  0.82110000  0.00000000
C        C    0.82110000  0.89230000  0.64090000  0.00000000
C        C    0.35910000  0.17890000  0.10770000  0.00000000
C        C    0.10770000  0.35910000  0.17890000  0.00000000
C        C    0.64090000  0.82110000  0.89230000  0.00000000
H        H    0.25200000  0.13780000  0.37350000  0.00000000
H        H    0.86220000  0.62650000  0.74800000  0.00000000
H        H    0.74800000  0.86220000  0.62650000  0.00000000
H        H    0.37350000  0.25200000  0.13780000  0.00000000
H        H    0.13780000  0.37350000  0.25200000  0.00000000
H        H    0.62650000  0.74800000  0.86220000  0.00000000
C        C    0.97610000  0.68520000  0.03700000  0.00000000
C        C    0.31480000  0.96300000  0.02390000  0.00000000
C        C    0.02390000  0.31480000  0.96300000  0.00000000
C        C    0.03700000  0.97610000  0.68520000  0.00000000
C        C    0.68520000  0.03700000  0.97610000  0.00000000
C        C    0.96300000  0.02390000  0.31480000  0.00000000
C        C    0.86640000  0.65890000  0.98520000  0.00000000
C        C    0.34110000  0.01480000  0.13360000  0.00000000
C        C    0.13360000  0.34110000  0.01480000  0.00000000
C        C    0.98520000  0.86640000  0.65890000  0.00000000
C        C    0.65890000  0.98520000  0.86640000  0.00000000
C        C    0.01480000  0.13360000  0.34110000  0.00000000
H        H    0.82240000  0.65710000  0.02200000  0.00000000
H        H    0.34290000  0.97800000  0.17760000  0.00000000
H        H    0.17760000  0.34290000  0.97800000  0.00000000
H        H    0.02200000  0.82240000  0.65710000  0.00000000
H        H    0.65710000  0.02200000  0.82240000  0.00000000
H        H    0.97800000  0.17760000  0.34290000  0.00000000
C        C    0.82650000  0.63550000  0.87660000  0.00000000
C        C    0.36450000  0.12340000  0.17350000  0.00000000
C        C    0.17350000  0.36450000  0.12340000  0.00000000
C        C    0.87660000  0.82650000  0.63550000  0.00000000
C        C    0.63550000  0.87660000  0.82650000  0.00000000
C        C    0.12340000  0.17350000  0.36450000  0.00000000
H        H    0.75300000  0.61550000  0.83900000  0.00000000
H        H    0.38450000  0.16100000  0.24700000  0.00000000
H        H    0.24700000  0.38450000  0.16100000  0.00000000
H        H    0.83900000  0.75300000  0.61550000  0.00000000
H        H    0.61550000  0.83900000  0.75300000  0.00000000
H        H    0.16100000  0.24700000  0.38450000  0.00000000
C        C    0.78230000  0.55060000  0.23100000  0.00000000
C        C    0.44940000  0.76900000  0.21770000  0.00000000
C        C    0.21770000  0.44940000  0.76900000  0.00000000
C        C    0.23100000  0.78230000  0.55060000  0.00000000
C        C    0.55060000  0.23100000  0.78230000  0.00000000
C        C    0.76900000  0.21770000  0.44940000  0.00000000
C        C    0.75460000  0.60570000  0.30800000  0.00000000
C        C    0.39430000  0.69200000  0.24540000  0.00000000
C        C    0.24540000  0.39430000  0.69200000  0.00000000
C        C    0.30800000  0.75460000  0.60570000  0.00000000
C        C    0.60570000  0.30800000  0.75460000  0.00000000
C        C    0.69200000  0.24540000  0.39430000  0.00000000
H        H    0.79550000  0.67940000  0.35180000  0.00000000
H        H    0.32060000  0.64820000  0.20450000  0.00000000
H        H    0.20450000  0.32060000  0.64820000  0.00000000
H        H    0.35180000  0.79550000  0.67940000  0.00000000
H        H    0.67940000  0.35180000  0.79550000  0.00000000
H        H    0.64820000  0.20450000  0.32060000  0.00000000
C        C    0.66450000  0.54840000  0.31800000  0.00000000
C        C    0.45160000  0.68200000  0.33550000  0.00000000
C        C    0.33550000  0.45160000  0.68200000  0.00000000
C        C    0.31800000  0.66450000  0.54840000  0.00000000
C        C    0.54840000  0.31800000  0.66450000  0.00000000
C        C    0.68200000  0.33550000  0.45160000  0.00000000
H        H    0.64350000  0.58360000  0.36860000  0.00000000
H        H    0.41640000  0.63140000  0.35650000  0.00000000
H        H    0.35650000  0.41640000  0.63140000  0.00000000
H        H    0.36860000  0.64350000  0.58360000  0.00000000
H        H    0.58360000  0.36860000  0.64350000  0.00000000
H        H    0.63140000  0.35650000  0.41640000  0.00000000
Co       Co   0.98804000  0.72931000  0.26040000  0.00000000
Co       Co   0.27069000  0.73960000  0.01196000  0.00000000
Co       Co   0.01196000  0.27069000  0.73960000  0.00000000
Co       Co   0.26040000  0.98804000  0.72931000  0.00000000
Co       Co   0.72931000  0.26040000  0.98804000  0.00000000
Co       Co   0.73960000  0.01196000  0.27069000  0.00000000
N        N    0.09870000  0.76850000  0.40470000  0.00000000
N        N    0.23150000  0.59530000  0.90130000  0.00000000
N        N    0.90130000  0.23150000  0.59530000  0.00000000
N        N    0.40470000  0.09870000  0.76850000  0.00000000
N        N    0.76850000  0.40470000  0.09870000  0.00000000
N        N    0.59530000  0.90130000  0.23150000  0.00000000
N        N    0.94640000  0.85340000  0.28130000  0.00000000
N        N    0.14660000  0.71870000  0.05360000  0.00000000
N        N    0.05360000  0.14660000  0.71870000  0.00000000
N        N    0.28130000  0.94640000  0.85340000  0.00000000
N        N    0.85340000  0.28130000  0.94640000  0.00000000
N        N    0.71870000  0.05360000  0.14660000  0.00000000
N        N    0.04160000  0.71280000  0.14520000  0.00000000
N        N    0.28720000  0.85480000  0.95840000  0.00000000
N        N    0.95840000  0.28720000  0.85480000  0.00000000
N        N    0.14520000  0.04160000  0.71280000  0.00000000
N        N    0.71280000  0.14520000  0.04160000  0.00000000
N        N    0.85480000  0.95840000  0.28720000  0.00000000
N        N    0.86760000  0.58470000  0.20310000  0.00000000
N        N    0.41530000  0.79690000  0.13240000  0.00000000
N        N    0.13240000  0.41530000  0.79690000  0.00000000
N        N    0.20310000  0.86760000  0.58470000  0.00000000
N        N    0.58470000  0.20310000  0.86760000  0.00000000
N        N    0.79690000  0.13240000  0.41530000  0.00000000
