data_ZIF-77

_cell_length_a  11.12480000
_cell_length_b  22.34690000
_cell_length_c  24.90870000
_cell_angle_alpha  90.00000000
_cell_angle_beta  90.00000000
_cell_angle_gamma  90.00000000


_symmetry_space_group_name_Hall ' P 1'
_symmetry_space_group_name_H-M  'P 1'
_symmetry_Int_Tables_number     1

loop_
_atom_site_label
_atom_site_type_symbol
_atom_site_fract_x
_atom_site_fract_y
_atom_site_fract_z
_atom_site_charge
Zn       Zn   0.78068000  0.80266000  0.37447000  0.00000000
Zn       Zn   0.78068000  0.19734000  0.87447000  0.00000000
Zn       Zn   0.28068000  0.30266000  0.87447000  0.00000000
Zn       Zn   0.28068000  0.69734000  0.62553000  0.00000000
Zn       Zn   0.71932000  0.69734000  0.87447000  0.00000000
Zn       Zn   0.21932000  0.19734000  0.62553000  0.00000000
Zn       Zn   0.28068000  0.69734000  0.37447000  0.00000000
Zn       Zn   0.28068000  0.30266000  0.12553000  0.00000000
Zn       Zn   0.21932000  0.80266000  0.12553000  0.00000000
Zn       Zn   0.21932000  0.80266000  0.87447000  0.00000000
Zn       Zn   0.71932000  0.30266000  0.37447000  0.00000000
Zn       Zn   0.71932000  0.69734000  0.12553000  0.00000000
Zn       Zn   0.78068000  0.19734000  0.12553000  0.00000000
Zn       Zn   0.21932000  0.19734000  0.37447000  0.00000000
Zn       Zn   0.71932000  0.30266000  0.62553000  0.00000000
Zn       Zn   0.78068000  0.80266000  0.62553000  0.00000000
Zn       Zn   0.50000000  0.50000000  0.25000000  0.00000000
Zn       Zn   0.00000000  0.00000000  0.25000000  0.00000000
Zn       Zn   0.50000000  0.50000000  0.75000000  0.00000000
Zn       Zn   0.00000000  0.00000000  0.75000000  0.00000000
O        O    0.89160000  0.89065000  0.21617000  0.00000000
O        O    0.89160000  0.10935000  0.71617000  0.00000000
O        O    0.39160000  0.39065000  0.71617000  0.00000000
O        O    0.39160000  0.60935000  0.78383000  0.00000000
O        O    0.60840000  0.60935000  0.71617000  0.00000000
O        O    0.10840000  0.10935000  0.78383000  0.00000000
O        O    0.39160000  0.60935000  0.21617000  0.00000000
O        O    0.39160000  0.39065000  0.28383000  0.00000000
O        O    0.10840000  0.89065000  0.28383000  0.00000000
O        O    0.10840000  0.89065000  0.71617000  0.00000000
O        O    0.60840000  0.39065000  0.21617000  0.00000000
O        O    0.60840000  0.60935000  0.28383000  0.00000000
O        O    0.89160000  0.10935000  0.28383000  0.00000000
O        O    0.10840000  0.10935000  0.21617000  0.00000000
O        O    0.60840000  0.39065000  0.78383000  0.00000000
O        O    0.89160000  0.89065000  0.78383000  0.00000000
O        O    0.80310000  0.81928000  0.26040000  0.00000000
O        O    0.80310000  0.18072000  0.76040000  0.00000000
O        O    0.30310000  0.31928000  0.76040000  0.00000000
O        O    0.30310000  0.68072000  0.73960000  0.00000000
O        O    0.69690000  0.68072000  0.76040000  0.00000000
O        O    0.19690000  0.18072000  0.73960000  0.00000000
O        O    0.30310000  0.68072000  0.26040000  0.00000000
O        O    0.30310000  0.31928000  0.23960000  0.00000000
O        O    0.19690000  0.81928000  0.23960000  0.00000000
O        O    0.19690000  0.81928000  0.76040000  0.00000000
O        O    0.69690000  0.31928000  0.26040000  0.00000000
O        O    0.69690000  0.68072000  0.23960000  0.00000000
O        O    0.80310000  0.18072000  0.23960000  0.00000000
O        O    0.19690000  0.18072000  0.26040000  0.00000000
O        O    0.69690000  0.31928000  0.73960000  0.00000000
O        O    0.80310000  0.81928000  0.73960000  0.00000000
O        O    0.01750000  0.85606000  0.40307000  0.00000000
O        O    0.01750000  0.14394000  0.90307000  0.00000000
O        O    0.51750000  0.35606000  0.90307000  0.00000000
O        O    0.51750000  0.64394000  0.59693000  0.00000000
O        O    0.48250000  0.64394000  0.90307000  0.00000000
O        O    0.98250000  0.14394000  0.59693000  0.00000000
O        O    0.51750000  0.64394000  0.40307000  0.00000000
O        O    0.51750000  0.35606000  0.09693000  0.00000000
O        O    0.98250000  0.85606000  0.09693000  0.00000000
O        O    0.98250000  0.85606000  0.90307000  0.00000000
O        O    0.48250000  0.35606000  0.40307000  0.00000000
O        O    0.48250000  0.64394000  0.09693000  0.00000000
O        O    0.01750000  0.14394000  0.09693000  0.00000000
O        O    0.98250000  0.14394000  0.40307000  0.00000000
O        O    0.48250000  0.35606000  0.59693000  0.00000000
O        O    0.01750000  0.85606000  0.59693000  0.00000000
O        O    0.62120000  0.86416000  0.45653000  0.00000000
O        O    0.62120000  0.13584000  0.95653000  0.00000000
O        O    0.12120000  0.36416000  0.95653000  0.00000000
O        O    0.12120000  0.63584000  0.54347000  0.00000000
O        O    0.87880000  0.63584000  0.95653000  0.00000000
O        O    0.37880000  0.13584000  0.54347000  0.00000000
O        O    0.12120000  0.63584000  0.45653000  0.00000000
O        O    0.12120000  0.36416000  0.04347000  0.00000000
O        O    0.37880000  0.86416000  0.04347000  0.00000000
O        O    0.37880000  0.86416000  0.95653000  0.00000000
O        O    0.87880000  0.36416000  0.45653000  0.00000000
O        O    0.87880000  0.63584000  0.04347000  0.00000000
O        O    0.62120000  0.13584000  0.04347000  0.00000000
O        O    0.37880000  0.13584000  0.45653000  0.00000000
O        O    0.87880000  0.36416000  0.54347000  0.00000000
O        O    0.62120000  0.86416000  0.54347000  0.00000000
O        O    0.19920000  0.82067000  0.39624000  0.00000000
O        O    0.19920000  0.17933000  0.89624000  0.00000000
O        O    0.69920000  0.32067000  0.89624000  0.00000000
O        O    0.69920000  0.67933000  0.60376000  0.00000000
O        O    0.30080000  0.67933000  0.89624000  0.00000000
O        O    0.80080000  0.17933000  0.60376000  0.00000000
O        O    0.69920000  0.67933000  0.39624000  0.00000000
O        O    0.69920000  0.32067000  0.10376000  0.00000000
O        O    0.80080000  0.82067000  0.10376000  0.00000000
O        O    0.80080000  0.82067000  0.89624000  0.00000000
O        O    0.30080000  0.32067000  0.39624000  0.00000000
O        O    0.30080000  0.67933000  0.10376000  0.00000000
O        O    0.19920000  0.17933000  0.10376000  0.00000000
O        O    0.80080000  0.17933000  0.39624000  0.00000000
O        O    0.30080000  0.32067000  0.60376000  0.00000000
O        O    0.19920000  0.82067000  0.60376000  0.00000000
N        N    0.88580000  0.96247000  0.30361000  0.00000000
N        N    0.88580000  0.03753000  0.80361000  0.00000000
N        N    0.38580000  0.46247000  0.80361000  0.00000000
N        N    0.38580000  0.53753000  0.69639000  0.00000000
N        N    0.61420000  0.53753000  0.80361000  0.00000000
N        N    0.11420000  0.03753000  0.69639000  0.00000000
N        N    0.38580000  0.53753000  0.30361000  0.00000000
N        N    0.38580000  0.46247000  0.19639000  0.00000000
N        N    0.11420000  0.96247000  0.19639000  0.00000000
N        N    0.11420000  0.96247000  0.80361000  0.00000000
N        N    0.61420000  0.46247000  0.30361000  0.00000000
N        N    0.61420000  0.53753000  0.19639000  0.00000000
N        N    0.88580000  0.03753000  0.19639000  0.00000000
N        N    0.11420000  0.03753000  0.30361000  0.00000000
N        N    0.61420000  0.46247000  0.69639000  0.00000000
N        N    0.88580000  0.96247000  0.69639000  0.00000000
N        N    0.79200000  0.88935000  0.34987000  0.00000000
N        N    0.79200000  0.11065000  0.84987000  0.00000000
N        N    0.29200000  0.38935000  0.84987000  0.00000000
N        N    0.29200000  0.61065000  0.65013000  0.00000000
N        N    0.70800000  0.61065000  0.84987000  0.00000000
N        N    0.20800000  0.11065000  0.65013000  0.00000000
N        N    0.29200000  0.61065000  0.34987000  0.00000000
N        N    0.29200000  0.38935000  0.15013000  0.00000000
N        N    0.20800000  0.88935000  0.15013000  0.00000000
N        N    0.20800000  0.88935000  0.84987000  0.00000000
N        N    0.70800000  0.38935000  0.34987000  0.00000000
N        N    0.70800000  0.61065000  0.15013000  0.00000000
N        N    0.79200000  0.11065000  0.15013000  0.00000000
N        N    0.20800000  0.11065000  0.34987000  0.00000000
N        N    0.70800000  0.38935000  0.65013000  0.00000000
N        N    0.79200000  0.88935000  0.65013000  0.00000000
N        N    0.84700000  0.86984000  0.25738000  0.00000000
N        N    0.84700000  0.13016000  0.75738000  0.00000000
N        N    0.34700000  0.36984000  0.75738000  0.00000000
N        N    0.34700000  0.63016000  0.74262000  0.00000000
N        N    0.65300000  0.63016000  0.75738000  0.00000000
N        N    0.15300000  0.13016000  0.74262000  0.00000000
N        N    0.34700000  0.63016000  0.25738000  0.00000000
N        N    0.34700000  0.36984000  0.24262000  0.00000000
N        N    0.15300000  0.86984000  0.24262000  0.00000000
N        N    0.15300000  0.86984000  0.75738000  0.00000000
N        N    0.65300000  0.36984000  0.25738000  0.00000000
N        N    0.65300000  0.63016000  0.24262000  0.00000000
N        N    0.84700000  0.13016000  0.24262000  0.00000000
N        N    0.15300000  0.13016000  0.25738000  0.00000000
N        N    0.65300000  0.36984000  0.74262000  0.00000000
N        N    0.84700000  0.86984000  0.74262000  0.00000000
N        N    0.79780000  0.78450000  0.45465000  0.00000000
N        N    0.79780000  0.21550000  0.95465000  0.00000000
N        N    0.29780000  0.28450000  0.95465000  0.00000000
N        N    0.29780000  0.71550000  0.54535000  0.00000000
N        N    0.70220000  0.71550000  0.95465000  0.00000000
N        N    0.20220000  0.21550000  0.54535000  0.00000000
N        N    0.29780000  0.71550000  0.45465000  0.00000000
N        N    0.29780000  0.28450000  0.04535000  0.00000000
N        N    0.20220000  0.78450000  0.04535000  0.00000000
N        N    0.20220000  0.78450000  0.95465000  0.00000000
N        N    0.70220000  0.28450000  0.45465000  0.00000000
N        N    0.70220000  0.71550000  0.04535000  0.00000000
N        N    0.79780000  0.21550000  0.04535000  0.00000000
N        N    0.20220000  0.21550000  0.45465000  0.00000000
N        N    0.70220000  0.28450000  0.54535000  0.00000000
N        N    0.79780000  0.78450000  0.54535000  0.00000000
N        N    0.16070000  0.65190000  0.50000000  0.00000000
N        N    0.16070000  0.34810000  0.00000000  0.00000000
N        N    0.33930000  0.84810000  0.00000000  0.00000000
N        N    0.83930000  0.65190000  0.00000000  0.00000000
N        N    0.66070000  0.15190000  0.00000000  0.00000000
N        N    0.33930000  0.15190000  0.50000000  0.00000000
N        N    0.83930000  0.34810000  0.50000000  0.00000000
N        N    0.66070000  0.84810000  0.50000000  0.00000000
N        N    0.92890000  0.75896000  0.34862000  0.00000000
N        N    0.92890000  0.24104000  0.84862000  0.00000000
N        N    0.42890000  0.25896000  0.84862000  0.00000000
N        N    0.42890000  0.74104000  0.65138000  0.00000000
N        N    0.57110000  0.74104000  0.84862000  0.00000000
N        N    0.07110000  0.24104000  0.65138000  0.00000000
N        N    0.42890000  0.74104000  0.34862000  0.00000000
N        N    0.42890000  0.25896000  0.15138000  0.00000000
N        N    0.07110000  0.75896000  0.15138000  0.00000000
N        N    0.07110000  0.75896000  0.84862000  0.00000000
N        N    0.57110000  0.25896000  0.34862000  0.00000000
N        N    0.57110000  0.74104000  0.15138000  0.00000000
N        N    0.92890000  0.24104000  0.15138000  0.00000000
N        N    0.07110000  0.24104000  0.34862000  0.00000000
N        N    0.57110000  0.25896000  0.65138000  0.00000000
N        N    0.92890000  0.75896000  0.65138000  0.00000000
N        N    0.11610000  0.72042000  0.34854000  0.00000000
N        N    0.11610000  0.27958000  0.84854000  0.00000000
N        N    0.61610000  0.22042000  0.84854000  0.00000000
N        N    0.61610000  0.77958000  0.65146000  0.00000000
N        N    0.38390000  0.77958000  0.84854000  0.00000000
N        N    0.88390000  0.27958000  0.65146000  0.00000000
N        N    0.61610000  0.77958000  0.34854000  0.00000000
N        N    0.61610000  0.22042000  0.15146000  0.00000000
N        N    0.88390000  0.72042000  0.15146000  0.00000000
N        N    0.88390000  0.72042000  0.84854000  0.00000000
N        N    0.38390000  0.22042000  0.34854000  0.00000000
N        N    0.38390000  0.77958000  0.15146000  0.00000000
N        N    0.11610000  0.27958000  0.15146000  0.00000000
N        N    0.88390000  0.27958000  0.34854000  0.00000000
N        N    0.38390000  0.22042000  0.65146000  0.00000000
N        N    0.11610000  0.72042000  0.65146000  0.00000000
N        N    0.08930000  0.81720000  0.38919000  0.00000000
N        N    0.08930000  0.18280000  0.88919000  0.00000000
N        N    0.58930000  0.31720000  0.88919000  0.00000000
N        N    0.58930000  0.68280000  0.61081000  0.00000000
N        N    0.41070000  0.68280000  0.88919000  0.00000000
N        N    0.91070000  0.18280000  0.61081000  0.00000000
N        N    0.58930000  0.68280000  0.38919000  0.00000000
N        N    0.58930000  0.31720000  0.11081000  0.00000000
N        N    0.91070000  0.81720000  0.11081000  0.00000000
N        N    0.91070000  0.81720000  0.88919000  0.00000000
N        N    0.41070000  0.31720000  0.38919000  0.00000000
N        N    0.41070000  0.68280000  0.11081000  0.00000000
N        N    0.08930000  0.18280000  0.11081000  0.00000000
N        N    0.91070000  0.18280000  0.38919000  0.00000000
N        N    0.41070000  0.31720000  0.61081000  0.00000000
N        N    0.08930000  0.81720000  0.61081000  0.00000000
C        C    0.85790000  0.98290000  0.35340000  0.00000000
C        C    0.85790000  0.01710000  0.85340000  0.00000000
C        C    0.35790000  0.48290000  0.85340000  0.00000000
C        C    0.35790000  0.51710000  0.64660000  0.00000000
C        C    0.64210000  0.51710000  0.85340000  0.00000000
C        C    0.14210000  0.01710000  0.64660000  0.00000000
C        C    0.35790000  0.51710000  0.35340000  0.00000000
C        C    0.35790000  0.48290000  0.14660000  0.00000000
C        C    0.14210000  0.98290000  0.14660000  0.00000000
C        C    0.14210000  0.98290000  0.85340000  0.00000000
C        C    0.64210000  0.48290000  0.35340000  0.00000000
C        C    0.64210000  0.51710000  0.14660000  0.00000000
C        C    0.85790000  0.01710000  0.14660000  0.00000000
C        C    0.14210000  0.01710000  0.35340000  0.00000000
C        C    0.64210000  0.48290000  0.64660000  0.00000000
C        C    0.85790000  0.98290000  0.64660000  0.00000000
H        H    0.87550000  0.02170000  0.36670000  0.00000000
H        H    0.87550000  0.97830000  0.86670000  0.00000000
H        H    0.37550000  0.52170000  0.86670000  0.00000000
H        H    0.37550000  0.47830000  0.63330000  0.00000000
H        H    0.62450000  0.47830000  0.86670000  0.00000000
H        H    0.12450000  0.97830000  0.63330000  0.00000000
H        H    0.37550000  0.47830000  0.36670000  0.00000000
H        H    0.37550000  0.52170000  0.13330000  0.00000000
H        H    0.12450000  0.02170000  0.13330000  0.00000000
H        H    0.12450000  0.02170000  0.86670000  0.00000000
H        H    0.62450000  0.52170000  0.36670000  0.00000000
H        H    0.62450000  0.47830000  0.13330000  0.00000000
H        H    0.87550000  0.97830000  0.13330000  0.00000000
H        H    0.12450000  0.97830000  0.36670000  0.00000000
H        H    0.62450000  0.52170000  0.63330000  0.00000000
H        H    0.87550000  0.02170000  0.63330000  0.00000000
C        C    0.80060000  0.93870000  0.38150000  0.00000000
C        C    0.80060000  0.06130000  0.88150000  0.00000000
C        C    0.30060000  0.43870000  0.88150000  0.00000000
C        C    0.30060000  0.56130000  0.61850000  0.00000000
C        C    0.69940000  0.56130000  0.88150000  0.00000000
C        C    0.19940000  0.06130000  0.61850000  0.00000000
C        C    0.30060000  0.56130000  0.38150000  0.00000000
C        C    0.30060000  0.43870000  0.11850000  0.00000000
C        C    0.19940000  0.93870000  0.11850000  0.00000000
C        C    0.19940000  0.93870000  0.88150000  0.00000000
C        C    0.69940000  0.43870000  0.38150000  0.00000000
C        C    0.69940000  0.56130000  0.11850000  0.00000000
C        C    0.80060000  0.06130000  0.11850000  0.00000000
C        C    0.19940000  0.06130000  0.38150000  0.00000000
C        C    0.69940000  0.43870000  0.61850000  0.00000000
C        C    0.80060000  0.93870000  0.61850000  0.00000000
H        H    0.77150000  0.94200000  0.41720000  0.00000000
H        H    0.77150000  0.05800000  0.91720000  0.00000000
H        H    0.27150000  0.44200000  0.91720000  0.00000000
H        H    0.27150000  0.55800000  0.58280000  0.00000000
H        H    0.72850000  0.55800000  0.91720000  0.00000000
H        H    0.22850000  0.05800000  0.58280000  0.00000000
H        H    0.27150000  0.55800000  0.41720000  0.00000000
H        H    0.27150000  0.44200000  0.08280000  0.00000000
H        H    0.22850000  0.94200000  0.08280000  0.00000000
H        H    0.22850000  0.94200000  0.91720000  0.00000000
H        H    0.72850000  0.44200000  0.41720000  0.00000000
H        H    0.72850000  0.55800000  0.08280000  0.00000000
H        H    0.77150000  0.05800000  0.08280000  0.00000000
H        H    0.22850000  0.05800000  0.41720000  0.00000000
H        H    0.72850000  0.44200000  0.58280000  0.00000000
H        H    0.77150000  0.94200000  0.58280000  0.00000000
C        C    0.84310000  0.90680000  0.30411000  0.00000000
C        C    0.84310000  0.09320000  0.80411000  0.00000000
C        C    0.34310000  0.40680000  0.80411000  0.00000000
C        C    0.34310000  0.59320000  0.69589000  0.00000000
C        C    0.65690000  0.59320000  0.80411000  0.00000000
C        C    0.15690000  0.09320000  0.69589000  0.00000000
C        C    0.34310000  0.59320000  0.30411000  0.00000000
C        C    0.34310000  0.40680000  0.19589000  0.00000000
C        C    0.15690000  0.90680000  0.19589000  0.00000000
C        C    0.15690000  0.90680000  0.80411000  0.00000000
C        C    0.65690000  0.40680000  0.30411000  0.00000000
C        C    0.65690000  0.59320000  0.19589000  0.00000000
C        C    0.84310000  0.09320000  0.19589000  0.00000000
C        C    0.15690000  0.09320000  0.30411000  0.00000000
C        C    0.65690000  0.40680000  0.69589000  0.00000000
C        C    0.84310000  0.90680000  0.69589000  0.00000000
C        C    0.25870000  0.69520000  0.50000000  0.00000000
C        C    0.25870000  0.30480000  0.00000000  0.00000000
C        C    0.24130000  0.80480000  0.00000000  0.00000000
C        C    0.74130000  0.69520000  0.00000000  0.00000000
C        C    0.75870000  0.19520000  0.00000000  0.00000000
C        C    0.24130000  0.19520000  0.50000000  0.00000000
C        C    0.74130000  0.30480000  0.50000000  0.00000000
C        C    0.75870000  0.80480000  0.50000000  0.00000000
C        C    0.88490000  0.74080000  0.47260000  0.00000000
C        C    0.88490000  0.25920000  0.97260000  0.00000000
C        C    0.38490000  0.24080000  0.97260000  0.00000000
C        C    0.38490000  0.75920000  0.52740000  0.00000000
C        C    0.61510000  0.75920000  0.97260000  0.00000000
C        C    0.11510000  0.25920000  0.52740000  0.00000000
C        C    0.38490000  0.75920000  0.47260000  0.00000000
C        C    0.38490000  0.24080000  0.02740000  0.00000000
C        C    0.11510000  0.74080000  0.02740000  0.00000000
C        C    0.11510000  0.74080000  0.97260000  0.00000000
C        C    0.61510000  0.24080000  0.47260000  0.00000000
C        C    0.61510000  0.75920000  0.02740000  0.00000000
C        C    0.88490000  0.25920000  0.02740000  0.00000000
C        C    0.11510000  0.25920000  0.47260000  0.00000000
C        C    0.61510000  0.24080000  0.52740000  0.00000000
C        C    0.88490000  0.74080000  0.52740000  0.00000000
H        H    0.93360000  0.71640000  0.45020000  0.00000000
H        H    0.93360000  0.28360000  0.95020000  0.00000000
H        H    0.43360000  0.21640000  0.95020000  0.00000000
H        H    0.43360000  0.78360000  0.54980000  0.00000000
H        H    0.56640000  0.78360000  0.95020000  0.00000000
H        H    0.06640000  0.28360000  0.54980000  0.00000000
H        H    0.43360000  0.78360000  0.45020000  0.00000000
H        H    0.43360000  0.21640000  0.04980000  0.00000000
H        H    0.06640000  0.71640000  0.04980000  0.00000000
H        H    0.06640000  0.71640000  0.95020000  0.00000000
H        H    0.56640000  0.21640000  0.45020000  0.00000000
H        H    0.56640000  0.78360000  0.04980000  0.00000000
H        H    0.93360000  0.28360000  0.04980000  0.00000000
H        H    0.06640000  0.28360000  0.45020000  0.00000000
H        H    0.56640000  0.21640000  0.54980000  0.00000000
H        H    0.93360000  0.71640000  0.54980000  0.00000000
C        C    0.04500000  0.76510000  0.36273000  0.00000000
C        C    0.04500000  0.23490000  0.86273000  0.00000000
C        C    0.54500000  0.26510000  0.86273000  0.00000000
C        C    0.54500000  0.73490000  0.63727000  0.00000000
C        C    0.45500000  0.73490000  0.86273000  0.00000000
C        C    0.95500000  0.23490000  0.63727000  0.00000000
C        C    0.54500000  0.73490000  0.36273000  0.00000000
C        C    0.54500000  0.26510000  0.13727000  0.00000000
C        C    0.95500000  0.76510000  0.13727000  0.00000000
C        C    0.95500000  0.76510000  0.86273000  0.00000000
C        C    0.45500000  0.26510000  0.36273000  0.00000000
C        C    0.45500000  0.73490000  0.13727000  0.00000000
C        C    0.04500000  0.23490000  0.13727000  0.00000000
C        C    0.95500000  0.23490000  0.36273000  0.00000000
C        C    0.45500000  0.26510000  0.63727000  0.00000000
C        C    0.04500000  0.76510000  0.63727000  0.00000000
C        C    0.04080000  0.68250000  0.32260000  0.00000000
C        C    0.04080000  0.31750000  0.82260000  0.00000000
C        C    0.54080000  0.18250000  0.82260000  0.00000000
C        C    0.54080000  0.81750000  0.67740000  0.00000000
C        C    0.45920000  0.81750000  0.82260000  0.00000000
C        C    0.95920000  0.31750000  0.67740000  0.00000000
C        C    0.54080000  0.81750000  0.32260000  0.00000000
C        C    0.54080000  0.18250000  0.17740000  0.00000000
C        C    0.95920000  0.68250000  0.17740000  0.00000000
C        C    0.95920000  0.68250000  0.82260000  0.00000000
C        C    0.45920000  0.18250000  0.32260000  0.00000000
C        C    0.45920000  0.81750000  0.17740000  0.00000000
C        C    0.04080000  0.31750000  0.17740000  0.00000000
C        C    0.95920000  0.31750000  0.32260000  0.00000000
C        C    0.45920000  0.18250000  0.67740000  0.00000000
C        C    0.04080000  0.68250000  0.67740000  0.00000000
H        H    0.06340000  0.64540000  0.30690000  0.00000000
H        H    0.06340000  0.35460000  0.80690000  0.00000000
H        H    0.56340000  0.14540000  0.80690000  0.00000000
H        H    0.56340000  0.85460000  0.69310000  0.00000000
H        H    0.43660000  0.85460000  0.80690000  0.00000000
H        H    0.93660000  0.35460000  0.69310000  0.00000000
H        H    0.56340000  0.85460000  0.30690000  0.00000000
H        H    0.56340000  0.14540000  0.19310000  0.00000000
H        H    0.93660000  0.64540000  0.19310000  0.00000000
H        H    0.93660000  0.64540000  0.80690000  0.00000000
H        H    0.43660000  0.14540000  0.30690000  0.00000000
H        H    0.43660000  0.85460000  0.19310000  0.00000000
H        H    0.06340000  0.35460000  0.19310000  0.00000000
H        H    0.93660000  0.35460000  0.30690000  0.00000000
H        H    0.43660000  0.14540000  0.69310000  0.00000000
H        H    0.06340000  0.64540000  0.69310000  0.00000000
C        C    0.92780000  0.70570000  0.32280000  0.00000000
C        C    0.92780000  0.29430000  0.82280000  0.00000000
C        C    0.42780000  0.20570000  0.82280000  0.00000000
C        C    0.42780000  0.79430000  0.67720000  0.00000000
C        C    0.57220000  0.79430000  0.82280000  0.00000000
C        C    0.07220000  0.29430000  0.67720000  0.00000000
C        C    0.42780000  0.79430000  0.32280000  0.00000000
C        C    0.42780000  0.20570000  0.17720000  0.00000000
C        C    0.07220000  0.70570000  0.17720000  0.00000000
C        C    0.07220000  0.70570000  0.82280000  0.00000000
C        C    0.57220000  0.20570000  0.32280000  0.00000000
C        C    0.57220000  0.79430000  0.17720000  0.00000000
C        C    0.92780000  0.29430000  0.17720000  0.00000000
C        C    0.07220000  0.29430000  0.32280000  0.00000000
C        C    0.57220000  0.20570000  0.67720000  0.00000000
C        C    0.92780000  0.70570000  0.67720000  0.00000000
H        H    0.85910000  0.68740000  0.30720000  0.00000000
H        H    0.85910000  0.31260000  0.80720000  0.00000000
H        H    0.35910000  0.18740000  0.80720000  0.00000000
H        H    0.35910000  0.81260000  0.69280000  0.00000000
H        H    0.64090000  0.81260000  0.80720000  0.00000000
H        H    0.14090000  0.31260000  0.69280000  0.00000000
H        H    0.35910000  0.81260000  0.30720000  0.00000000
H        H    0.35910000  0.18740000  0.19280000  0.00000000
H        H    0.14090000  0.68740000  0.19280000  0.00000000
H        H    0.14090000  0.68740000  0.80720000  0.00000000
H        H    0.64090000  0.18740000  0.30720000  0.00000000
H        H    0.64090000  0.81260000  0.19280000  0.00000000
H        H    0.85910000  0.31260000  0.19280000  0.00000000
H        H    0.14090000  0.31260000  0.30720000  0.00000000
H        H    0.64090000  0.18740000  0.69280000  0.00000000
H        H    0.85910000  0.68740000  0.69280000  0.00000000
