data_ZIF-4

_cell_length_a  15.39500000
_cell_length_b  15.30730000
_cell_length_c  18.42600000
_cell_angle_alpha  90.00000000
_cell_angle_beta  90.00000000
_cell_angle_gamma  90.00000000


_symmetry_space_group_name_Hall ' P 1'
_symmetry_space_group_name_H-M  'P 1'
_symmetry_Int_Tables_number     1

loop_
_atom_site_label
_atom_site_type_symbol
_atom_site_fract_x
_atom_site_fract_y
_atom_site_fract_z
_atom_site_charge
C        C    0.85769000  0.73390000  0.86019000  0.00000000
H        H    0.82190000  0.78010000  0.84480000  0.00000000
C        C    0.89910000  0.61320000  0.90571000  0.00000000
H        H    0.89930000  0.55800000  0.92800000  0.00000000
C        C    0.97080000  0.65820000  0.88370000  0.00000000
H        H    0.02870000  0.63950000  0.88810000  0.00000000
C        C    0.69110000  0.51370000  0.78300000  0.00000000
H        H    0.73910000  0.53740000  0.75830000  0.00000000
C        C    0.61980000  0.82240000  0.89068000  0.00000000
H        H    0.63720000  0.84540000  0.93570000  0.00000000
C        C    0.59815000  0.73721000  0.80184000  0.00000000
H        H    0.59770000  0.68700000  0.77240000  0.00000000
C        C    0.10590000  0.84601000  0.95360000  0.00000000
H        H    0.06400000  0.81080000  0.97640000  0.00000000
C        C    0.07600000  0.86590000  0.66094000  0.00000000
H        H    0.05780000  0.92450000  0.65790000  0.00000000
C        C    0.90531000  0.98711000  0.86161000  0.00000000
H        H    0.93810000  0.99000000  0.90460000  0.00000000
C        C    0.86280000  0.94990000  0.75710000  0.00000000
H        H    0.85790000  0.92230000  0.71170000  0.00000000
C        C    0.72750000  0.59510000  0.07030000  0.00000000
H        H    0.78500000  0.57500000  0.06610000  0.00000000
C        C    0.18300000  0.89760000  0.86750000  0.00000000
H        H    0.20380000  0.91060000  0.82080000  0.00000000
N        N    0.82702000  0.66148000  0.89010000  0.00000000
N        N    0.94376000  0.73514000  0.85396000  0.00000000
N        N    0.67417000  0.62256000  0.01153000  0.00000000
N        N    0.66370000  0.53685000  0.85008000  0.00000000
N        N    0.63490000  0.73928000  0.86682000  0.00000000
N        N    0.10088000  0.86758000  0.88468000  0.00000000
N        N    0.06206000  0.81197000  0.71808000  0.00000000
N        N    0.92445000  0.93287000  0.80772000  0.00000000
Zn       Zn   0.70215000  0.63949000  0.90830200  0.00000000
Zn       Zn   0.00963500  0.83602000  0.81374300  0.00000000
C        C    0.64231000  0.26610000  0.36019000  0.00000000
H        H    0.67810000  0.21990000  0.34480000  0.00000000
C        C    0.60090000  0.38680000  0.40571000  0.00000000
H        H    0.60070000  0.44200000  0.42800000  0.00000000
C        C    0.52920000  0.34180000  0.38370000  0.00000000
H        H    0.47130000  0.36050000  0.38810000  0.00000000
C        C    0.80890000  0.48630000  0.28300000  0.00000000
H        H    0.76090000  0.46260000  0.25830000  0.00000000
C        C    0.88020000  0.17760000  0.39068000  0.00000000
H        H    0.86280000  0.15460000  0.43570000  0.00000000
C        C    0.90185000  0.26279000  0.30184000  0.00000000
H        H    0.90230000  0.31300000  0.27240000  0.00000000
C        C    0.39410000  0.15399000  0.45360000  0.00000000
H        H    0.43600000  0.18920000  0.47640000  0.00000000
C        C    0.42400000  0.13410000  0.16094000  0.00000000
H        H    0.44220000  0.07550000  0.15790000  0.00000000
C        C    0.59469000  0.01289000  0.36161000  0.00000000
H        H    0.56190000  0.01000000  0.40460000  0.00000000
C        C    0.63720000  0.05010000  0.25710000  0.00000000
H        H    0.64210000  0.07770000  0.21170000  0.00000000
C        C    0.33490000  0.06770000  0.37880000  0.00000000
H        H    0.32360000  0.03380000  0.33730000  0.00000000
C        C    0.79200000  0.43810000  0.55700000  0.00000000
H        H    0.74680000  0.47720000  0.54600000  0.00000000
N        N    0.67298000  0.33852000  0.39010000  0.00000000
N        N    0.55624000  0.26486000  0.35396000  0.00000000
N        N    0.82583000  0.37744000  0.51153000  0.00000000
N        N    0.83630000  0.46315000  0.35008000  0.00000000
N        N    0.86510000  0.26072000  0.36682000  0.00000000
N        N    0.39912000  0.13242000  0.38468000  0.00000000
N        N    0.43794000  0.18803000  0.21808000  0.00000000
N        N    0.57555000  0.06713000  0.30772000  0.00000000
Zn       Zn   0.79785000  0.36051000  0.40830200  0.00000000
Zn       Zn   0.49036500  0.16398000  0.31374300  0.00000000
C        C    0.35769000  0.76610000  0.13981000  0.00000000
H        H    0.32190000  0.71990000  0.15520000  0.00000000
C        C    0.39910000  0.88680000  0.09429000  0.00000000
H        H    0.39930000  0.94200000  0.07200000  0.00000000
C        C    0.47080000  0.84180000  0.11630000  0.00000000
H        H    0.52870000  0.86050000  0.11190000  0.00000000
C        C    0.19110000  0.98630000  0.21700000  0.00000000
H        H    0.23910000  0.96260000  0.24170000  0.00000000
C        C    0.11980000  0.67760000  0.10932000  0.00000000
H        H    0.13720000  0.65460000  0.06430000  0.00000000
C        C    0.09815000  0.76279000  0.19816000  0.00000000
H        H    0.09770000  0.81300000  0.22760000  0.00000000
C        C    0.60590000  0.65399000  0.04640000  0.00000000
H        H    0.56400000  0.68920000  0.02360000  0.00000000
C        C    0.57600000  0.63410000  0.33906000  0.00000000
H        H    0.55780000  0.57550000  0.34210000  0.00000000
C        C    0.40531000  0.51289000  0.13839000  0.00000000
H        H    0.43810000  0.51000000  0.09540000  0.00000000
C        C    0.36280000  0.55010000  0.24290000  0.00000000
H        H    0.35790000  0.57770000  0.28830000  0.00000000
C        C    0.22750000  0.90490000  0.92970000  0.00000000
H        H    0.28500000  0.92500000  0.93390000  0.00000000
C        C    0.68300000  0.60240000  0.13250000  0.00000000
H        H    0.70380000  0.58940000  0.17920000  0.00000000
N        N    0.32702000  0.83852000  0.10990000  0.00000000
N        N    0.44376000  0.76486000  0.14604000  0.00000000
N        N    0.17417000  0.87744000  0.98847000  0.00000000
N        N    0.16370000  0.96315000  0.14992000  0.00000000
N        N    0.13490000  0.76072000  0.13318000  0.00000000
N        N    0.60088000  0.63242000  0.11532000  0.00000000
N        N    0.56206000  0.68803000  0.28192000  0.00000000
N        N    0.42445000  0.56713000  0.19228000  0.00000000
Zn       Zn   0.20215000  0.86051000  0.09169800  0.00000000
Zn       Zn   0.50963500  0.66398000  0.18625700  0.00000000
C        C    0.14231000  0.23390000  0.63981000  0.00000000
H        H    0.17810000  0.28010000  0.65520000  0.00000000
C        C    0.10090000  0.11320000  0.59429000  0.00000000
H        H    0.10070000  0.05800000  0.57200000  0.00000000
C        C    0.02920000  0.15820000  0.61630000  0.00000000
H        H    0.97130000  0.13950000  0.61190000  0.00000000
C        C    0.30890000  0.01370000  0.71700000  0.00000000
H        H    0.26090000  0.03740000  0.74170000  0.00000000
C        C    0.38020000  0.32240000  0.60932000  0.00000000
H        H    0.36280000  0.34540000  0.56430000  0.00000000
C        C    0.40185000  0.23721000  0.69816000  0.00000000
H        H    0.40230000  0.18700000  0.72760000  0.00000000
C        C    0.89410000  0.34601000  0.54640000  0.00000000
H        H    0.93600000  0.31080000  0.52360000  0.00000000
C        C    0.92400000  0.36590000  0.83906000  0.00000000
H        H    0.94220000  0.42450000  0.84210000  0.00000000
C        C    0.09469000  0.48711000  0.63839000  0.00000000
H        H    0.06190000  0.49000000  0.59540000  0.00000000
C        C    0.13720000  0.44990000  0.74290000  0.00000000
H        H    0.14210000  0.42230000  0.78830000  0.00000000
C        C    0.83490000  0.43230000  0.62120000  0.00000000
H        H    0.82360000  0.46620000  0.66270000  0.00000000
C        C    0.29200000  0.06190000  0.44300000  0.00000000
H        H    0.24680000  0.02280000  0.45400000  0.00000000
N        N    0.17298000  0.16148000  0.60990000  0.00000000
N        N    0.05624000  0.23514000  0.64604000  0.00000000
N        N    0.32583000  0.12256000  0.48847000  0.00000000
N        N    0.33630000  0.03685000  0.64992000  0.00000000
N        N    0.36510000  0.23928000  0.63318000  0.00000000
N        N    0.89912000  0.36758000  0.61532000  0.00000000
N        N    0.93794000  0.31197000  0.78192000  0.00000000
N        N    0.07555000  0.43287000  0.69228000  0.00000000
Zn       Zn   0.29785000  0.13949000  0.59169800  0.00000000
Zn       Zn   0.99036500  0.33602000  0.68625700  0.00000000
C        C    0.14231000  0.26610000  0.13981000  0.00000000
H        H    0.17810000  0.21990000  0.15520000  0.00000000
C        C    0.10090000  0.38680000  0.09429000  0.00000000
H        H    0.10070000  0.44200000  0.07200000  0.00000000
C        C    0.02920000  0.34180000  0.11630000  0.00000000
H        H    0.97130000  0.36050000  0.11190000  0.00000000
C        C    0.30890000  0.48630000  0.21700000  0.00000000
H        H    0.26090000  0.46260000  0.24170000  0.00000000
C        C    0.38020000  0.17760000  0.10932000  0.00000000
H        H    0.36280000  0.15460000  0.06430000  0.00000000
C        C    0.40185000  0.26279000  0.19816000  0.00000000
H        H    0.40230000  0.31300000  0.22760000  0.00000000
C        C    0.89410000  0.15399000  0.04640000  0.00000000
H        H    0.93600000  0.18920000  0.02360000  0.00000000
C        C    0.92400000  0.13410000  0.33906000  0.00000000
H        H    0.94220000  0.07550000  0.34210000  0.00000000
C        C    0.09469000  0.01289000  0.13839000  0.00000000
H        H    0.06190000  0.01000000  0.09540000  0.00000000
C        C    0.13720000  0.05010000  0.24290000  0.00000000
H        H    0.14210000  0.07770000  0.28830000  0.00000000
C        C    0.27250000  0.40490000  0.92970000  0.00000000
H        H    0.21500000  0.42500000  0.93390000  0.00000000
C        C    0.81700000  0.10240000  0.13250000  0.00000000
H        H    0.79620000  0.08940000  0.17920000  0.00000000
N        N    0.17298000  0.33852000  0.10990000  0.00000000
N        N    0.05624000  0.26486000  0.14604000  0.00000000
N        N    0.32583000  0.37744000  0.98847000  0.00000000
N        N    0.33630000  0.46315000  0.14992000  0.00000000
N        N    0.36510000  0.26072000  0.13318000  0.00000000
N        N    0.89912000  0.13242000  0.11532000  0.00000000
N        N    0.93794000  0.18803000  0.28192000  0.00000000
N        N    0.07555000  0.06713000  0.19228000  0.00000000
Zn       Zn   0.29785000  0.36051000  0.09169800  0.00000000
Zn       Zn   0.99036500  0.16398000  0.18625700  0.00000000
C        C    0.35769000  0.73390000  0.63981000  0.00000000
H        H    0.32190000  0.78010000  0.65520000  0.00000000
C        C    0.39910000  0.61320000  0.59429000  0.00000000
H        H    0.39930000  0.55800000  0.57200000  0.00000000
C        C    0.47080000  0.65820000  0.61630000  0.00000000
H        H    0.52870000  0.63950000  0.61190000  0.00000000
C        C    0.19110000  0.51370000  0.71700000  0.00000000
H        H    0.23910000  0.53740000  0.74170000  0.00000000
C        C    0.11980000  0.82240000  0.60932000  0.00000000
H        H    0.13720000  0.84540000  0.56430000  0.00000000
C        C    0.09815000  0.73721000  0.69816000  0.00000000
H        H    0.09770000  0.68700000  0.72760000  0.00000000
C        C    0.60590000  0.84601000  0.54640000  0.00000000
H        H    0.56400000  0.81080000  0.52360000  0.00000000
C        C    0.57600000  0.86590000  0.83906000  0.00000000
H        H    0.55780000  0.92450000  0.84210000  0.00000000
C        C    0.40531000  0.98711000  0.63839000  0.00000000
H        H    0.43810000  0.99000000  0.59540000  0.00000000
C        C    0.36280000  0.94990000  0.74290000  0.00000000
H        H    0.35790000  0.92230000  0.78830000  0.00000000
C        C    0.66510000  0.93230000  0.62120000  0.00000000
H        H    0.67640000  0.96620000  0.66270000  0.00000000
C        C    0.20800000  0.56190000  0.44300000  0.00000000
H        H    0.25320000  0.52280000  0.45400000  0.00000000
N        N    0.32702000  0.66148000  0.60990000  0.00000000
N        N    0.44376000  0.73514000  0.64604000  0.00000000
N        N    0.17417000  0.62256000  0.48847000  0.00000000
N        N    0.16370000  0.53685000  0.64992000  0.00000000
N        N    0.13490000  0.73928000  0.63318000  0.00000000
N        N    0.60088000  0.86758000  0.61532000  0.00000000
N        N    0.56206000  0.81197000  0.78192000  0.00000000
N        N    0.42445000  0.93287000  0.69228000  0.00000000
Zn       Zn   0.20215000  0.63949000  0.59169800  0.00000000
Zn       Zn   0.50963500  0.83602000  0.68625700  0.00000000
C        C    0.64231000  0.23390000  0.86019000  0.00000000
H        H    0.67810000  0.28010000  0.84480000  0.00000000
C        C    0.60090000  0.11320000  0.90571000  0.00000000
H        H    0.60070000  0.05800000  0.92800000  0.00000000
C        C    0.52920000  0.15820000  0.88370000  0.00000000
H        H    0.47130000  0.13950000  0.88810000  0.00000000
C        C    0.80890000  0.01370000  0.78300000  0.00000000
H        H    0.76090000  0.03740000  0.75830000  0.00000000
C        C    0.88020000  0.32240000  0.89068000  0.00000000
H        H    0.86280000  0.34540000  0.93570000  0.00000000
C        C    0.90185000  0.23721000  0.80184000  0.00000000
H        H    0.90230000  0.18700000  0.77240000  0.00000000
C        C    0.39410000  0.34601000  0.95360000  0.00000000
H        H    0.43600000  0.31080000  0.97640000  0.00000000
C        C    0.42400000  0.36590000  0.66094000  0.00000000
H        H    0.44220000  0.42450000  0.65790000  0.00000000
C        C    0.59469000  0.48711000  0.86161000  0.00000000
H        H    0.56190000  0.49000000  0.90460000  0.00000000
C        C    0.63720000  0.44990000  0.75710000  0.00000000
H        H    0.64210000  0.42230000  0.71170000  0.00000000
C        C    0.77250000  0.09510000  0.07030000  0.00000000
H        H    0.71500000  0.07500000  0.06610000  0.00000000
C        C    0.31700000  0.39760000  0.86750000  0.00000000
H        H    0.29620000  0.41060000  0.82080000  0.00000000
N        N    0.67298000  0.16148000  0.89010000  0.00000000
N        N    0.55624000  0.23514000  0.85396000  0.00000000
N        N    0.82583000  0.12256000  0.01153000  0.00000000
N        N    0.83630000  0.03685000  0.85008000  0.00000000
N        N    0.86510000  0.23928000  0.86682000  0.00000000
N        N    0.39912000  0.36758000  0.88468000  0.00000000
N        N    0.43794000  0.31197000  0.71808000  0.00000000
N        N    0.57555000  0.43287000  0.80772000  0.00000000
Zn       Zn   0.79785000  0.13949000  0.90830200  0.00000000
Zn       Zn   0.49036500  0.33602000  0.81374300  0.00000000
C        C    0.85769000  0.76610000  0.36019000  0.00000000
H        H    0.82190000  0.71990000  0.34480000  0.00000000
C        C    0.89910000  0.88680000  0.40571000  0.00000000
H        H    0.89930000  0.94200000  0.42800000  0.00000000
C        C    0.97080000  0.84180000  0.38370000  0.00000000
H        H    0.02870000  0.86050000  0.38810000  0.00000000
C        C    0.69110000  0.98630000  0.28300000  0.00000000
H        H    0.73910000  0.96260000  0.25830000  0.00000000
C        C    0.61980000  0.67760000  0.39068000  0.00000000
H        H    0.63720000  0.65460000  0.43570000  0.00000000
C        C    0.59815000  0.76279000  0.30184000  0.00000000
H        H    0.59770000  0.81300000  0.27240000  0.00000000
C        C    0.10590000  0.65399000  0.45360000  0.00000000
H        H    0.06400000  0.68920000  0.47640000  0.00000000
C        C    0.07600000  0.63410000  0.16094000  0.00000000
H        H    0.05780000  0.57550000  0.15790000  0.00000000
C        C    0.90531000  0.51289000  0.36161000  0.00000000
H        H    0.93810000  0.51000000  0.40460000  0.00000000
C        C    0.86280000  0.55010000  0.25710000  0.00000000
H        H    0.85790000  0.57770000  0.21170000  0.00000000
C        C    0.16510000  0.56770000  0.37880000  0.00000000
H        H    0.17640000  0.53380000  0.33730000  0.00000000
C        C    0.70800000  0.93810000  0.55700000  0.00000000
H        H    0.75320000  0.97720000  0.54600000  0.00000000
N        N    0.82702000  0.83852000  0.39010000  0.00000000
N        N    0.94376000  0.76486000  0.35396000  0.00000000
N        N    0.67417000  0.87744000  0.51153000  0.00000000
N        N    0.66370000  0.96315000  0.35008000  0.00000000
N        N    0.63490000  0.76072000  0.36682000  0.00000000
N        N    0.10088000  0.63242000  0.38468000  0.00000000
N        N    0.06206000  0.68803000  0.21808000  0.00000000
N        N    0.92445000  0.56713000  0.30772000  0.00000000
Zn       Zn   0.70215000  0.86051000  0.40830200  0.00000000
Zn       Zn   0.00963500  0.66398000  0.31374300  0.00000000
