data_ZIF-2

_cell_length_a  9.67900000
_cell_length_b  24.11400000
_cell_length_c  24.45000000
_cell_angle_alpha  90.00000000
_cell_angle_beta  90.00000000
_cell_angle_gamma  90.00000000


_symmetry_space_group_name_Hall ' P 1'
_symmetry_space_group_name_H-M  'P 1'
_symmetry_Int_Tables_number     1

loop_
_atom_site_label
_atom_site_type_symbol
_atom_site_fract_x
_atom_site_fract_y
_atom_site_fract_z
_atom_site_charge
Zn       Zn   0.51511000  0.67465000  0.50122000  0.00000000
Zn       Zn   0.98489000  0.17465000  0.50122000  0.00000000
Zn       Zn   0.48489000  0.17465000  0.99878000  0.00000000
Zn       Zn   0.01511000  0.82535000  0.49878000  0.00000000
Zn       Zn   0.48489000  0.32535000  0.49878000  0.00000000
Zn       Zn   0.01511000  0.67465000  0.99878000  0.00000000
Zn       Zn   0.51511000  0.82535000  0.00122000  0.00000000
Zn       Zn   0.98489000  0.32535000  0.00122000  0.00000000
Zn       Zn   0.50204000  0.50179000  0.32387000  0.00000000
Zn       Zn   0.99796000  0.00179000  0.32387000  0.00000000
Zn       Zn   0.49796000  0.00179000  0.17613000  0.00000000
Zn       Zn   0.00204000  0.99821000  0.67613000  0.00000000
Zn       Zn   0.49796000  0.49821000  0.67613000  0.00000000
Zn       Zn   0.00204000  0.50179000  0.17613000  0.00000000
Zn       Zn   0.50204000  0.99821000  0.82387000  0.00000000
Zn       Zn   0.99796000  0.49821000  0.82387000  0.00000000
N        N    0.38160000  0.73460000  0.48190000  0.00000000
N        N    0.11840000  0.23460000  0.48190000  0.00000000
N        N    0.61840000  0.23460000  0.01810000  0.00000000
N        N    0.88160000  0.76540000  0.51810000  0.00000000
N        N    0.61840000  0.26540000  0.51810000  0.00000000
N        N    0.88160000  0.73460000  0.01810000  0.00000000
N        N    0.38160000  0.76540000  0.98190000  0.00000000
N        N    0.11840000  0.26540000  0.98190000  0.00000000
N        N    0.69680000  0.71060000  0.52130000  0.00000000
N        N    0.80320000  0.21060000  0.52130000  0.00000000
N        N    0.30320000  0.21060000  0.97870000  0.00000000
N        N    0.19680000  0.78940000  0.47870000  0.00000000
N        N    0.30320000  0.28940000  0.47870000  0.00000000
N        N    0.19680000  0.71060000  0.97870000  0.00000000
N        N    0.69680000  0.78940000  0.02130000  0.00000000
N        N    0.80320000  0.28940000  0.02130000  0.00000000
C        C    0.51720000  0.58100000  0.41810000  0.00000000
C        C    0.98280000  0.08100000  0.41810000  0.00000000
C        C    0.48280000  0.08100000  0.08190000  0.00000000
C        C    0.01720000  0.91900000  0.58190000  0.00000000
C        C    0.48280000  0.41900000  0.58190000  0.00000000
C        C    0.01720000  0.58100000  0.08190000  0.00000000
C        C    0.51720000  0.91900000  0.91810000  0.00000000
C        C    0.98280000  0.41900000  0.91810000  0.00000000
H        H    0.47800000  0.55450000  0.44230000  0.00000000
H        H    0.02200000  0.05450000  0.44230000  0.00000000
H        H    0.52200000  0.05450000  0.05770000  0.00000000
H        H    0.97800000  0.94550000  0.55770000  0.00000000
H        H    0.52200000  0.44550000  0.55770000  0.00000000
H        H    0.97800000  0.55450000  0.05770000  0.00000000
H        H    0.47800000  0.94550000  0.94230000  0.00000000
H        H    0.02200000  0.44550000  0.94230000  0.00000000
C        C    0.75340000  0.51240000  0.24920000  0.00000000
C        C    0.74660000  0.01240000  0.24920000  0.00000000
C        C    0.24660000  0.01240000  0.25080000  0.00000000
C        C    0.25340000  0.98760000  0.75080000  0.00000000
C        C    0.24660000  0.48760000  0.75080000  0.00000000
C        C    0.25340000  0.51240000  0.25080000  0.00000000
C        C    0.75340000  0.98760000  0.74920000  0.00000000
C        C    0.74660000  0.48760000  0.74920000  0.00000000
H        H    0.80280000  0.53480000  0.27440000  0.00000000
H        H    0.69720000  0.03480000  0.27440000  0.00000000
H        H    0.19720000  0.03480000  0.22560000  0.00000000
H        H    0.30280000  0.96520000  0.72560000  0.00000000
H        H    0.19720000  0.46520000  0.72560000  0.00000000
H        H    0.30280000  0.53480000  0.22560000  0.00000000
H        H    0.80280000  0.96520000  0.77440000  0.00000000
H        H    0.69720000  0.46520000  0.77440000  0.00000000
C        C    0.39660000  0.77220000  0.44020000  0.00000000
C        C    0.10340000  0.27220000  0.44020000  0.00000000
C        C    0.60340000  0.27220000  0.05980000  0.00000000
C        C    0.89660000  0.72780000  0.55980000  0.00000000
C        C    0.60340000  0.22780000  0.55980000  0.00000000
C        C    0.89660000  0.77220000  0.05980000  0.00000000
C        C    0.39660000  0.72780000  0.94020000  0.00000000
C        C    0.10340000  0.22780000  0.94020000  0.00000000
H        H    0.47390000  0.77440000  0.41640000  0.00000000
H        H    0.02610000  0.27440000  0.41640000  0.00000000
H        H    0.52610000  0.27440000  0.08360000  0.00000000
H        H    0.97390000  0.72560000  0.58360000  0.00000000
H        H    0.52610000  0.22560000  0.58360000  0.00000000
H        H    0.97390000  0.77440000  0.08360000  0.00000000
H        H    0.47390000  0.72560000  0.91640000  0.00000000
H        H    0.02610000  0.22560000  0.91640000  0.00000000
N        N    0.62150000  0.49490000  0.25720000  0.00000000
N        N    0.87850000  0.99490000  0.25720000  0.00000000
N        N    0.37850000  0.99490000  0.24280000  0.00000000
N        N    0.12150000  0.00510000  0.74280000  0.00000000
N        N    0.37850000  0.50510000  0.74280000  0.00000000
N        N    0.12150000  0.49490000  0.24280000  0.00000000
N        N    0.62150000  0.00510000  0.75720000  0.00000000
N        N    0.87850000  0.50510000  0.75720000  0.00000000
C        C    0.59190000  0.46600000  0.21160000  0.00000000
C        C    0.90810000  0.96600000  0.21160000  0.00000000
C        C    0.40810000  0.96600000  0.28840000  0.00000000
C        C    0.09190000  0.03400000  0.78840000  0.00000000
C        C    0.40810000  0.53400000  0.78840000  0.00000000
C        C    0.09190000  0.46600000  0.28840000  0.00000000
C        C    0.59190000  0.03400000  0.71160000  0.00000000
C        C    0.90810000  0.53400000  0.71160000  0.00000000
H        H    0.50610000  0.44830000  0.20440000  0.00000000
H        H    0.99390000  0.94830000  0.20440000  0.00000000
H        H    0.49390000  0.94830000  0.29560000  0.00000000
H        H    0.00610000  0.05170000  0.79560000  0.00000000
H        H    0.49390000  0.55170000  0.79560000  0.00000000
H        H    0.00610000  0.44830000  0.29560000  0.00000000
H        H    0.50610000  0.05170000  0.70440000  0.00000000
H        H    0.99390000  0.55170000  0.70440000  0.00000000
C        C    0.25840000  0.74630000  0.50330000  0.00000000
C        C    0.24160000  0.24630000  0.50330000  0.00000000
C        C    0.74160000  0.24630000  0.99670000  0.00000000
C        C    0.75840000  0.75370000  0.49670000  0.00000000
C        C    0.74160000  0.25370000  0.49670000  0.00000000
C        C    0.75840000  0.74630000  0.99670000  0.00000000
C        C    0.25840000  0.75370000  0.00330000  0.00000000
C        C    0.24160000  0.25370000  0.00330000  0.00000000
H        H    0.21850000  0.72620000  0.53290000  0.00000000
H        H    0.28150000  0.22620000  0.53290000  0.00000000
H        H    0.78150000  0.22620000  0.96710000  0.00000000
H        H    0.71850000  0.77380000  0.46710000  0.00000000
H        H    0.78150000  0.27380000  0.46710000  0.00000000
H        H    0.71850000  0.72620000  0.96710000  0.00000000
H        H    0.21850000  0.77380000  0.03290000  0.00000000
H        H    0.28150000  0.27380000  0.03290000  0.00000000
N        N    0.30590000  0.49450000  0.29820000  0.00000000
N        N    0.19410000  0.99450000  0.29820000  0.00000000
N        N    0.69410000  0.99450000  0.20180000  0.00000000
N        N    0.80590000  0.00550000  0.70180000  0.00000000
N        N    0.69410000  0.50550000  0.70180000  0.00000000
N        N    0.80590000  0.49450000  0.20180000  0.00000000
N        N    0.30590000  0.00550000  0.79820000  0.00000000
N        N    0.19410000  0.50550000  0.79820000  0.00000000
C        C    0.70160000  0.46590000  0.17790000  0.00000000
C        C    0.79840000  0.96590000  0.17790000  0.00000000
C        C    0.29840000  0.96590000  0.32210000  0.00000000
C        C    0.20160000  0.03410000  0.82210000  0.00000000
C        C    0.29840000  0.53410000  0.82210000  0.00000000
C        C    0.20160000  0.46590000  0.32210000  0.00000000
C        C    0.70160000  0.03410000  0.67790000  0.00000000
C        C    0.79840000  0.53410000  0.67790000  0.00000000
H        H    0.70540000  0.44860000  0.14300000  0.00000000
H        H    0.79460000  0.94860000  0.14300000  0.00000000
H        H    0.29460000  0.94860000  0.35700000  0.00000000
H        H    0.20540000  0.05140000  0.85700000  0.00000000
H        H    0.29460000  0.55140000  0.85700000  0.00000000
H        H    0.20540000  0.44860000  0.35700000  0.00000000
H        H    0.70540000  0.05140000  0.64300000  0.00000000
H        H    0.79460000  0.55140000  0.64300000  0.00000000
C        C    0.50780000  0.58180000  0.58180000  0.00000000
C        C    0.99220000  0.08180000  0.58180000  0.00000000
C        C    0.49220000  0.08180000  0.91820000  0.00000000
C        C    0.00780000  0.91820000  0.41820000  0.00000000
C        C    0.49220000  0.41820000  0.41820000  0.00000000
C        C    0.00780000  0.58180000  0.91820000  0.00000000
C        C    0.50780000  0.91820000  0.08180000  0.00000000
C        C    0.99220000  0.41820000  0.08180000  0.00000000
H        H    0.57390000  0.56110000  0.56160000  0.00000000
H        H    0.92610000  0.06110000  0.56160000  0.00000000
H        H    0.42610000  0.06110000  0.93840000  0.00000000
H        H    0.07390000  0.93890000  0.43840000  0.00000000
H        H    0.42610000  0.43890000  0.43840000  0.00000000
H        H    0.07390000  0.56110000  0.93840000  0.00000000
H        H    0.57390000  0.93890000  0.06160000  0.00000000
H        H    0.92610000  0.43890000  0.06160000  0.00000000
C        C    0.78470000  0.69430000  0.56180000  0.00000000
C        C    0.71530000  0.19430000  0.56180000  0.00000000
C        C    0.21530000  0.19430000  0.93820000  0.00000000
C        C    0.28470000  0.80570000  0.43820000  0.00000000
C        C    0.21530000  0.30570000  0.43820000  0.00000000
C        C    0.28470000  0.69430000  0.93820000  0.00000000
C        C    0.78470000  0.80570000  0.06180000  0.00000000
C        C    0.71530000  0.30570000  0.06180000  0.00000000
H        H    0.77000000  0.66480000  0.58680000  0.00000000
H        H    0.73000000  0.16480000  0.58680000  0.00000000
H        H    0.23000000  0.16480000  0.91320000  0.00000000
H        H    0.27000000  0.83520000  0.41320000  0.00000000
H        H    0.23000000  0.33520000  0.41320000  0.00000000
H        H    0.27000000  0.66480000  0.91320000  0.00000000
H        H    0.77000000  0.83520000  0.08680000  0.00000000
H        H    0.73000000  0.33520000  0.08680000  0.00000000
N        N    0.55000000  0.63130000  0.43360000  0.00000000
N        N    0.95000000  0.13130000  0.43360000  0.00000000
N        N    0.45000000  0.13130000  0.06640000  0.00000000
N        N    0.05000000  0.86870000  0.56640000  0.00000000
N        N    0.45000000  0.36870000  0.56640000  0.00000000
N        N    0.05000000  0.63130000  0.06640000  0.00000000
N        N    0.55000000  0.86870000  0.93360000  0.00000000
N        N    0.95000000  0.36870000  0.93360000  0.00000000
C        C    0.60260000  0.65480000  0.38730000  0.00000000
C        C    0.89740000  0.15480000  0.38730000  0.00000000
C        C    0.39740000  0.15480000  0.11270000  0.00000000
C        C    0.10260000  0.84520000  0.61270000  0.00000000
C        C    0.39740000  0.34520000  0.61270000  0.00000000
C        C    0.10260000  0.65480000  0.11270000  0.00000000
C        C    0.60260000  0.84520000  0.88730000  0.00000000
C        C    0.89740000  0.34520000  0.88730000  0.00000000
H        H    0.63610000  0.69170000  0.38440000  0.00000000
H        H    0.86390000  0.19170000  0.38440000  0.00000000
H        H    0.36390000  0.19170000  0.11560000  0.00000000
H        H    0.13610000  0.80830000  0.61560000  0.00000000
H        H    0.36390000  0.30830000  0.61560000  0.00000000
H        H    0.13610000  0.69170000  0.11560000  0.00000000
H        H    0.63610000  0.80830000  0.88440000  0.00000000
H        H    0.86390000  0.30830000  0.88440000  0.00000000
C        C    0.36420000  0.60580000  0.64450000  0.00000000
C        C    0.13580000  0.10580000  0.64450000  0.00000000
C        C    0.63580000  0.10580000  0.85550000  0.00000000
C        C    0.86420000  0.89420000  0.35550000  0.00000000
C        C    0.63580000  0.39420000  0.35550000  0.00000000
C        C    0.86420000  0.60580000  0.85550000  0.00000000
C        C    0.36420000  0.89420000  0.14450000  0.00000000
C        C    0.13580000  0.39420000  0.14450000  0.00000000
H        H    0.30820000  0.60590000  0.67650000  0.00000000
H        H    0.19180000  0.10590000  0.67650000  0.00000000
H        H    0.69180000  0.10590000  0.82350000  0.00000000
H        H    0.80820000  0.89410000  0.32350000  0.00000000
H        H    0.69180000  0.39410000  0.32350000  0.00000000
H        H    0.80820000  0.60590000  0.82350000  0.00000000
H        H    0.30820000  0.89410000  0.17650000  0.00000000
H        H    0.19180000  0.39410000  0.17650000  0.00000000
N        N    0.54330000  0.57020000  0.36540000  0.00000000
N        N    0.95670000  0.07020000  0.36540000  0.00000000
N        N    0.45670000  0.07020000  0.13460000  0.00000000
N        N    0.04330000  0.92980000  0.63460000  0.00000000
N        N    0.45670000  0.42980000  0.63460000  0.00000000
N        N    0.04330000  0.57020000  0.13460000  0.00000000
N        N    0.54330000  0.92980000  0.86540000  0.00000000
N        N    0.95670000  0.42980000  0.86540000  0.00000000
C        C    0.59950000  0.61720000  0.34570000  0.00000000
C        C    0.90050000  0.11720000  0.34570000  0.00000000
C        C    0.40050000  0.11720000  0.15430000  0.00000000
C        C    0.09950000  0.88280000  0.65430000  0.00000000
C        C    0.40050000  0.38280000  0.65430000  0.00000000
C        C    0.09950000  0.61720000  0.15430000  0.00000000
C        C    0.59950000  0.88280000  0.84570000  0.00000000
C        C    0.90050000  0.38280000  0.84570000  0.00000000
H        H    0.63130000  0.62310000  0.30940000  0.00000000
H        H    0.86870000  0.12310000  0.30940000  0.00000000
H        H    0.36870000  0.12310000  0.19060000  0.00000000
H        H    0.13130000  0.87690000  0.69060000  0.00000000
H        H    0.36870000  0.37690000  0.69060000  0.00000000
H        H    0.13130000  0.62310000  0.19060000  0.00000000
H        H    0.63130000  0.87690000  0.80940000  0.00000000
H        H    0.86870000  0.37690000  0.80940000  0.00000000
C        C    0.36490000  0.64570000  0.60550000  0.00000000
C        C    0.13510000  0.14570000  0.60550000  0.00000000
C        C    0.63510000  0.14570000  0.89450000  0.00000000
C        C    0.86490000  0.85430000  0.39450000  0.00000000
C        C    0.63510000  0.35430000  0.39450000  0.00000000
C        C    0.86490000  0.64570000  0.89450000  0.00000000
C        C    0.36490000  0.85430000  0.10550000  0.00000000
C        C    0.13510000  0.35430000  0.10550000  0.00000000
H        H    0.31150000  0.67880000  0.60630000  0.00000000
H        H    0.18850000  0.17880000  0.60630000  0.00000000
H        H    0.68850000  0.17880000  0.89370000  0.00000000
H        H    0.81150000  0.82120000  0.39370000  0.00000000
H        H    0.68850000  0.32120000  0.39370000  0.00000000
H        H    0.81150000  0.67880000  0.89370000  0.00000000
H        H    0.31150000  0.82120000  0.10630000  0.00000000
H        H    0.18850000  0.32120000  0.10630000  0.00000000
N        N    0.45490000  0.63090000  0.56460000  0.00000000
N        N    0.04510000  0.13090000  0.56460000  0.00000000
N        N    0.54510000  0.13090000  0.93540000  0.00000000
N        N    0.95490000  0.86910000  0.43540000  0.00000000
N        N    0.54510000  0.36910000  0.43540000  0.00000000
N        N    0.95490000  0.63090000  0.93540000  0.00000000
N        N    0.45490000  0.86910000  0.06460000  0.00000000
N        N    0.04510000  0.36910000  0.06460000  0.00000000
N        N    0.45680000  0.56510000  0.63070000  0.00000000
N        N    0.04320000  0.06510000  0.63070000  0.00000000
N        N    0.54320000  0.06510000  0.86930000  0.00000000
N        N    0.95680000  0.93490000  0.36930000  0.00000000
N        N    0.54320000  0.43490000  0.36930000  0.00000000
N        N    0.95680000  0.56510000  0.86930000  0.00000000
N        N    0.45680000  0.93490000  0.13070000  0.00000000
N        N    0.04320000  0.43490000  0.13070000  0.00000000
