data_ZIF-1

_cell_length_a  9.74050000
_cell_length_b  15.26600000
_cell_length_c  14.93600000
_cell_angle_alpha  90.00000000
_cell_angle_beta  98.62000000
_cell_angle_gamma  90.00000000


_symmetry_space_group_name_Hall ' P 1'
_symmetry_space_group_name_H-M  'P 1'
_symmetry_Int_Tables_number     1

loop_
_atom_site_label
_atom_site_type_symbol
_atom_site_fract_x
_atom_site_fract_y
_atom_site_fract_z
_atom_site_charge
C        C    0.46992000  0.09199000  0.15672000  0.00000000
C        C    0.96992000  0.40801000  0.65672000  0.00000000
C        C    0.53008000  0.90801000  0.84328000  0.00000000
C        C    0.03008000  0.59199000  0.34328000  0.00000000
H        H    0.48340000  0.06820000  0.10060000  0.00000000
H        H    0.98340000  0.43180000  0.60060000  0.00000000
H        H    0.51660000  0.93180000  0.89940000  0.00000000
H        H    0.01660000  0.56820000  0.39940000  0.00000000
C        C    0.45078000  0.10134000  0.29449000  0.00000000
C        C    0.95078000  0.39866000  0.79449000  0.00000000
C        C    0.54922000  0.89866000  0.70551000  0.00000000
C        C    0.04922000  0.60134000  0.20551000  0.00000000
H        H    0.44760000  0.08810000  0.35560000  0.00000000
H        H    0.94760000  0.41190000  0.85560000  0.00000000
H        H    0.55240000  0.91190000  0.64440000  0.00000000
H        H    0.05240000  0.58810000  0.14440000  0.00000000
C        C    0.42630000  0.18066000  0.25568000  0.00000000
C        C    0.92630000  0.31934000  0.75568000  0.00000000
C        C    0.57370000  0.81934000  0.74432000  0.00000000
C        C    0.07370000  0.68066000  0.24432000  0.00000000
H        H    0.40380000  0.23170000  0.28550000  0.00000000
H        H    0.90380000  0.26830000  0.78550000  0.00000000
H        H    0.59620000  0.76830000  0.71450000  0.00000000
H        H    0.09620000  0.73170000  0.21450000  0.00000000
C        C    0.11070000  0.31838000  0.01820000  0.00000000
C        C    0.61070000  0.18162000  0.51820000  0.00000000
C        C    0.88930000  0.68162000  0.98180000  0.00000000
C        C    0.38930000  0.81838000  0.48180000  0.00000000
H        H    0.10360000  0.29460000  0.95960000  0.00000000
H        H    0.60360000  0.20540000  0.45960000  0.00000000
H        H    0.89640000  0.70540000  0.04040000  0.00000000
H        H    0.39640000  0.79460000  0.54040000  0.00000000
C        C    0.18632000  0.36387000  0.14793000  0.00000000
C        C    0.68632000  0.13613000  0.64793000  0.00000000
C        C    0.81368000  0.63613000  0.85207000  0.00000000
C        C    0.31368000  0.86387000  0.35207000  0.00000000
H        H    0.24830000  0.37770000  0.20050000  0.00000000
H        H    0.74830000  0.12230000  0.70050000  0.00000000
H        H    0.75170000  0.62230000  0.79950000  0.00000000
H        H    0.25170000  0.87770000  0.29950000  0.00000000
C        C    0.54354000  0.45470000  0.11625000  0.00000000
C        C    0.04354000  0.04530000  0.61625000  0.00000000
C        C    0.45646000  0.54530000  0.88375000  0.00000000
C        C    0.95646000  0.95470000  0.38375000  0.00000000
H        H    0.46670000  0.48580000  0.08650000  0.00000000
H        H    0.96670000  0.01420000  0.58650000  0.00000000
H        H    0.53330000  0.51420000  0.91350000  0.00000000
H        H    0.03330000  0.98580000  0.41350000  0.00000000
C        C    0.55590000  0.28158000  0.91618000  0.00000000
C        C    0.05590000  0.21842000  0.41618000  0.00000000
C        C    0.44410000  0.71842000  0.08382000  0.00000000
C        C    0.94410000  0.78158000  0.58382000  0.00000000
H        H    0.60260000  0.33390000  0.93460000  0.00000000
H        H    0.10260000  0.16610000  0.43460000  0.00000000
H        H    0.39740000  0.66610000  0.06540000  0.00000000
H        H    0.89740000  0.83390000  0.56540000  0.00000000
C        C    0.83200000  0.98985000  0.34953000  0.00000000
C        C    0.33200000  0.51015000  0.84953000  0.00000000
C        C    0.16800000  0.01015000  0.65047000  0.00000000
C        C    0.66800000  0.48985000  0.15047000  0.00000000
H        H    0.80710000  0.04910000  0.35270000  0.00000000
H        H    0.30710000  0.45090000  0.85270000  0.00000000
H        H    0.19290000  0.95090000  0.64730000  0.00000000
H        H    0.69290000  0.54910000  0.14730000  0.00000000
C        C    0.82442000  0.85378000  0.32382000  0.00000000
C        C    0.32442000  0.64622000  0.82382000  0.00000000
C        C    0.17558000  0.14622000  0.67618000  0.00000000
C        C    0.67558000  0.35378000  0.17618000  0.00000000
H        H    0.79150000  0.79800000  0.30440000  0.00000000
H        H    0.29150000  0.70200000  0.80440000  0.00000000
H        H    0.20850000  0.20200000  0.69560000  0.00000000
H        H    0.70850000  0.29800000  0.19560000  0.00000000
C        C    0.49597000  0.85207000  0.44339000  0.00000000
C        C    0.99597000  0.64793000  0.94339000  0.00000000
C        C    0.50403000  0.14793000  0.55661000  0.00000000
C        C    0.00403000  0.35207000  0.05661000  0.00000000
H        H    0.58940000  0.85390000  0.47070000  0.00000000
H        H    0.08940000  0.64610000  0.97070000  0.00000000
H        H    0.41060000  0.14610000  0.52930000  0.00000000
H        H    0.91060000  0.35390000  0.02930000  0.00000000
C        C    0.57291000  0.82951000  0.08987000  0.00000000
C        C    0.07291000  0.67049000  0.58987000  0.00000000
C        C    0.42709000  0.17049000  0.91013000  0.00000000
C        C    0.92709000  0.32951000  0.41013000  0.00000000
H        H    0.63740000  0.87090000  0.07510000  0.00000000
H        H    0.13740000  0.62910000  0.57510000  0.00000000
H        H    0.36260000  0.12910000  0.92490000  0.00000000
H        H    0.86260000  0.37090000  0.42490000  0.00000000
C        C    0.43091000  0.76376000  0.15984000  0.00000000
C        C    0.93091000  0.73624000  0.65984000  0.00000000
C        C    0.56909000  0.23624000  0.84016000  0.00000000
C        C    0.06909000  0.26376000  0.34016000  0.00000000
H        H    0.37440000  0.74800000  0.20300000  0.00000000
H        H    0.87440000  0.75200000  0.70300000  0.00000000
H        H    0.62560000  0.25200000  0.79700000  0.00000000
H        H    0.12560000  0.24800000  0.29700000  0.00000000
N        N    0.43919000  0.17505000  0.16644000  0.00000000
N        N    0.93919000  0.32495000  0.66644000  0.00000000
N        N    0.56081000  0.82495000  0.83356000  0.00000000
N        N    0.06081000  0.67505000  0.33356000  0.00000000
N        N    0.48061000  0.04422000  0.23138000  0.00000000
N        N    0.98061000  0.45578000  0.73138000  0.00000000
N        N    0.51939000  0.95578000  0.76862000  0.00000000
N        N    0.01939000  0.54422000  0.26862000  0.00000000
N        N    0.22772000  0.32474000  0.07785000  0.00000000
N        N    0.72772000  0.17526000  0.57785000  0.00000000
N        N    0.77228000  0.67526000  0.92215000  0.00000000
N        N    0.27228000  0.82474000  0.42215000  0.00000000
N        N    0.54784000  0.36721000  0.13199000  0.00000000
N        N    0.04784000  0.13279000  0.63199000  0.00000000
N        N    0.45216000  0.63279000  0.86801000  0.00000000
N        N    0.95216000  0.86721000  0.36801000  0.00000000
N        N    0.46551000  0.24006000  0.96133000  0.00000000
N        N    0.96551000  0.25994000  0.46133000  0.00000000
N        N    0.53449000  0.75994000  0.03867000  0.00000000
N        N    0.03449000  0.74006000  0.53867000  0.00000000
N        N    0.74889000  0.92450000  0.30976000  0.00000000
N        N    0.24889000  0.57550000  0.80976000  0.00000000
N        N    0.25111000  0.07550000  0.69024000  0.00000000
N        N    0.75111000  0.42450000  0.19024000  0.00000000
N        N    0.51286000  0.83561000  0.16323000  0.00000000
N        N    0.01286000  0.66439000  0.66323000  0.00000000
N        N    0.48714000  0.16439000  0.83677000  0.00000000
N        N    0.98714000  0.33561000  0.33677000  0.00000000
N        N    0.44670000  0.88229000  0.36010000  0.00000000
N        N    0.94670000  0.61771000  0.86010000  0.00000000
N        N    0.55330000  0.11771000  0.63990000  0.00000000
N        N    0.05330000  0.38229000  0.13990000  0.00000000
Zn       Zn   0.54682800  0.92393000  0.26102200  0.00000000
Zn       Zn   0.04682800  0.57607000  0.76102200  0.00000000
Zn       Zn   0.45317200  0.07607000  0.73897800  0.00000000
Zn       Zn   0.95317200  0.42393000  0.23897800  0.00000000
Zn       Zn   0.41547000  0.27394700  0.07948000  0.00000000
Zn       Zn   0.91547000  0.22605300  0.57948000  0.00000000
Zn       Zn   0.58453000  0.72605300  0.92052000  0.00000000
Zn       Zn   0.08453000  0.77394700  0.42052000  0.00000000
