data_AEL

_cell_length_a  18.19629051
_cell_length_b  18.19629051
_cell_length_c  8.38630000
_cell_angle_alpha  90.00000000
_cell_angle_beta  90.00000000
_cell_angle_gamma  47.66038713


_symmetry_space_group_name_Hall ' P 1'
_symmetry_space_group_name_H-M  'P 1'
_symmetry_Int_Tables_number     1

loop_
_atom_site_label
_atom_site_type_symbol
_atom_site_fract_x
_atom_site_fract_y
_atom_site_fract_z
_atom_site_charge
Si       Si   0.39360000  0.22560000  0.06600000  0.00000000
Si       Si   0.22560000  0.39360000  0.56600000  0.00000000
Si       Si   0.22560000  0.39360000  0.93400000  0.00000000
Si       Si   0.60640000  0.77440000  0.56600000  0.00000000
Si       Si   0.39360000  0.22560000  0.43400000  0.00000000
Si       Si   0.77440000  0.60640000  0.43400000  0.00000000
Si       Si   0.60640000  0.77440000  0.93400000  0.00000000
Si       Si   0.77440000  0.60640000  0.06600000  0.00000000
Si       Si   0.86800000  0.13200000  0.52800000  0.00000000
Si       Si   0.13200000  0.86800000  0.02800000  0.00000000
Si       Si   0.13200000  0.86800000  0.47200000  0.00000000
Si       Si   0.86800000  0.13200000  0.97200000  0.00000000
Si       Si   0.81820000  0.00620000  0.05500000  0.00000000
Si       Si   0.00620000  0.81820000  0.55500000  0.00000000
Si       Si   0.00620000  0.81820000  0.94500000  0.00000000
Si       Si   0.18180000  0.99380000  0.55500000  0.00000000
Si       Si   0.81820000  0.00620000  0.44500000  0.00000000
Si       Si   0.99380000  0.18180000  0.44500000  0.00000000
Si       Si   0.18180000  0.99380000  0.94500000  0.00000000
Si       Si   0.99380000  0.18180000  0.05500000  0.00000000
Si       Si   0.32200000  0.13000000  0.93900000  0.00000000
Si       Si   0.13000000  0.32200000  0.43900000  0.00000000
Si       Si   0.13000000  0.32200000  0.06100000  0.00000000
Si       Si   0.67800000  0.87000000  0.43900000  0.00000000
Si       Si   0.32200000  0.13000000  0.56100000  0.00000000
Si       Si   0.87000000  0.67800000  0.56100000  0.00000000
Si       Si   0.67800000  0.87000000  0.06100000  0.00000000
Si       Si   0.87000000  0.67800000  0.93900000  0.00000000
Si       Si   0.61670000  0.06870000  0.92900000  0.00000000
Si       Si   0.06870000  0.61670000  0.42900000  0.00000000
Si       Si   0.06870000  0.61670000  0.07100000  0.00000000
Si       Si   0.38330000  0.93130000  0.42900000  0.00000000
Si       Si   0.61670000  0.06870000  0.57100000  0.00000000
Si       Si   0.93130000  0.38330000  0.57100000  0.00000000
Si       Si   0.38330000  0.93130000  0.07100000  0.00000000
Si       Si   0.93130000  0.38330000  0.92900000  0.00000000
O        O    0.32330000  0.32330000  0.50000000  0.00000000
O        O    0.67670000  0.67670000  0.50000000  0.00000000
O        O    0.32330000  0.32330000  0.00000000  0.00000000
O        O    0.67670000  0.67670000  0.00000000  0.00000000
O        O    1.00000000  1.00000000  0.50000000  0.00000000
O        O    0.00000000  0.00000000  0.00000000  0.00000000
O        O    0.42080000  0.22480000  0.25000000  0.00000000
O        O    0.22480000  0.42080000  0.75000000  0.00000000
O        O    0.57920000  0.77520000  0.75000000  0.00000000
O        O    0.77520000  0.57920000  0.25000000  0.00000000
O        O    0.12700000  0.87300000  0.25000000  0.00000000
O        O    0.87300000  0.12700000  0.75000000  0.00000000
O        O    0.82140000  0.08740000  0.01800000  0.00000000
O        O    0.08740000  0.82140000  0.51800000  0.00000000
O        O    0.08740000  0.82140000  0.98200000  0.00000000
O        O    0.17860000  0.91260000  0.51800000  0.00000000
O        O    0.82140000  0.08740000  0.48200000  0.00000000
O        O    0.91260000  0.17860000  0.48200000  0.00000000
O        O    0.17860000  0.91260000  0.98200000  0.00000000
O        O    0.91260000  0.17860000  0.01800000  0.00000000
O        O    0.37430000  0.16230000  0.02000000  0.00000000
O        O    0.16230000  0.37430000  0.52000000  0.00000000
O        O    0.16230000  0.37430000  0.98000000  0.00000000
O        O    0.62570000  0.83770000  0.52000000  0.00000000
O        O    0.37430000  0.16230000  0.48000000  0.00000000
O        O    0.83770000  0.62570000  0.48000000  0.00000000
O        O    0.62570000  0.83770000  0.98000000  0.00000000
O        O    0.83770000  0.62570000  0.02000000  0.00000000
O        O    0.51800000  0.16600000  0.03100000  0.00000000
O        O    0.16600000  0.51800000  0.53100000  0.00000000
O        O    0.16600000  0.51800000  0.96900000  0.00000000
O        O    0.48200000  0.83400000  0.53100000  0.00000000
O        O    0.51800000  0.16600000  0.46900000  0.00000000
O        O    0.83400000  0.48200000  0.46900000  0.00000000
O        O    0.48200000  0.83400000  0.96900000  0.00000000
O        O    0.83400000  0.48200000  0.03100000  0.00000000
O        O    0.62570000  0.97570000  0.01700000  0.00000000
O        O    0.97570000  0.62570000  0.51700000  0.00000000
O        O    0.97570000  0.62570000  0.98300000  0.00000000
O        O    0.37430000  0.02430000  0.51700000  0.00000000
O        O    0.62570000  0.97570000  0.48300000  0.00000000
O        O    0.02430000  0.37430000  0.48300000  0.00000000
O        O    0.37430000  0.02430000  0.98300000  0.00000000
O        O    0.02430000  0.37430000  0.01700000  0.00000000
O        O    0.90940000  0.90940000  0.50000000  0.00000000
O        O    0.09060000  0.09060000  0.50000000  0.00000000
O        O    0.90940000  0.90940000  0.00000000  0.00000000
O        O    0.09060000  0.09060000  0.00000000  0.00000000
O        O    0.81930000  0.01130000  0.25000000  0.00000000
O        O    0.01130000  0.81930000  0.75000000  0.00000000
O        O    0.18070000  0.98870000  0.75000000  0.00000000
O        O    0.98870000  0.18070000  0.25000000  0.00000000
O        O    0.36300000  0.11900000  0.75000000  0.00000000
O        O    0.11900000  0.36300000  0.25000000  0.00000000
O        O    0.63700000  0.88100000  0.25000000  0.00000000
O        O    0.88100000  0.63700000  0.75000000  0.00000000
O        O    0.62360000  0.08760000  0.75000000  0.00000000
O        O    0.08760000  0.62360000  0.25000000  0.00000000
O        O    0.37640000  0.91240000  0.25000000  0.00000000
O        O    0.91240000  0.37640000  0.75000000  0.00000000
O        O    0.71060000  0.05860000  0.00200000  0.00000000
O        O    0.05860000  0.71060000  0.50200000  0.00000000
O        O    0.05860000  0.71060000  0.99800000  0.00000000
O        O    0.28940000  0.94140000  0.50200000  0.00000000
O        O    0.71060000  0.05860000  0.49800000  0.00000000
O        O    0.94140000  0.28940000  0.49800000  0.00000000
O        O    0.28940000  0.94140000  0.99800000  0.00000000
O        O    0.94140000  0.28940000  0.00200000  0.00000000
O        O    0.21350000  0.21350000  0.50000000  0.00000000
O        O    0.78650000  0.78650000  0.50000000  0.00000000
O        O    0.21350000  0.21350000  0.00000000  0.00000000
O        O    0.78650000  0.78650000  0.00000000  0.00000000
