data_AEL

_cell_length_a  33.29000000
_cell_length_b  14.70360000
_cell_length_c  8.38630000
_cell_angle_alpha  90.00000000
_cell_angle_beta  90.00000000
_cell_angle_gamma  90.00000000


_symmetry_space_group_name_Hall ' P 1'
_symmetry_space_group_name_H-M  'P 1'
_symmetry_Int_Tables_number     1

loop_
_atom_site_label
_atom_site_type_symbol
_atom_site_fract_x
_atom_site_fract_y
_atom_site_fract_z
_atom_site_charge
Si       Si   0.30960000  0.91600000  0.06600000  0.00000000
Si       Si   0.30960000  0.08400000  0.56600000  0.00000000
Si       Si   0.80960000  0.58400000  0.93400000  0.00000000
Si       Si   0.19040000  0.58400000  0.56600000  0.00000000
Si       Si   0.30960000  0.91600000  0.43400000  0.00000000
Si       Si   0.19040000  0.41600000  0.43400000  0.00000000
Si       Si   0.69040000  0.08400000  0.93400000  0.00000000
Si       Si   0.80960000  0.41600000  0.43400000  0.00000000
Si       Si   0.30960000  0.08400000  0.93400000  0.00000000
Si       Si   0.69040000  0.08400000  0.56600000  0.00000000
Si       Si   0.69040000  0.91600000  0.43400000  0.00000000
Si       Si   0.80960000  0.58400000  0.56600000  0.00000000
Si       Si   0.19040000  0.41600000  0.06600000  0.00000000
Si       Si   0.19040000  0.58400000  0.93400000  0.00000000
Si       Si   0.80960000  0.41600000  0.06600000  0.00000000
Si       Si   0.69040000  0.91600000  0.06600000  0.00000000
Si       Si   0.00000000  0.13200000  0.52800000  0.00000000
Si       Si   0.50000000  0.36800000  0.02800000  0.00000000
Si       Si   0.50000000  0.36800000  0.47200000  0.00000000
Si       Si   0.50000000  0.63200000  0.52800000  0.00000000
Si       Si   0.00000000  0.86800000  0.47200000  0.00000000
Si       Si   0.00000000  0.86800000  0.02800000  0.00000000
Si       Si   0.00000000  0.13200000  0.97200000  0.00000000
Si       Si   0.50000000  0.63200000  0.97200000  0.00000000
Si       Si   0.41220000  0.59400000  0.05500000  0.00000000
Si       Si   0.41220000  0.40600000  0.55500000  0.00000000
Si       Si   0.91220000  0.90600000  0.94500000  0.00000000
Si       Si   0.08780000  0.90600000  0.55500000  0.00000000
Si       Si   0.41220000  0.59400000  0.44500000  0.00000000
Si       Si   0.08780000  0.09400000  0.44500000  0.00000000
Si       Si   0.58780000  0.40600000  0.94500000  0.00000000
Si       Si   0.91220000  0.09400000  0.44500000  0.00000000
Si       Si   0.41220000  0.40600000  0.94500000  0.00000000
Si       Si   0.58780000  0.40600000  0.55500000  0.00000000
Si       Si   0.58780000  0.59400000  0.44500000  0.00000000
Si       Si   0.91220000  0.90600000  0.55500000  0.00000000
Si       Si   0.08780000  0.09400000  0.05500000  0.00000000
Si       Si   0.08780000  0.90600000  0.94500000  0.00000000
Si       Si   0.91220000  0.09400000  0.05500000  0.00000000
Si       Si   0.58780000  0.59400000  0.05500000  0.00000000
Si       Si   0.22600000  0.90400000  0.93900000  0.00000000
Si       Si   0.22600000  0.09600000  0.43900000  0.00000000
Si       Si   0.72600000  0.59600000  0.06100000  0.00000000
Si       Si   0.27400000  0.59600000  0.43900000  0.00000000
Si       Si   0.22600000  0.90400000  0.56100000  0.00000000
Si       Si   0.27400000  0.40400000  0.56100000  0.00000000
Si       Si   0.77400000  0.09600000  0.06100000  0.00000000
Si       Si   0.72600000  0.40400000  0.56100000  0.00000000
Si       Si   0.22600000  0.09600000  0.06100000  0.00000000
Si       Si   0.77400000  0.09600000  0.43900000  0.00000000
Si       Si   0.77400000  0.90400000  0.56100000  0.00000000
Si       Si   0.72600000  0.59600000  0.43900000  0.00000000
Si       Si   0.27400000  0.40400000  0.93900000  0.00000000
Si       Si   0.27400000  0.59600000  0.06100000  0.00000000
Si       Si   0.72600000  0.40400000  0.93900000  0.00000000
Si       Si   0.77400000  0.90400000  0.93900000  0.00000000
Si       Si   0.34270000  0.72600000  0.92900000  0.00000000
Si       Si   0.34270000  0.27400000  0.42900000  0.00000000
Si       Si   0.84270000  0.77400000  0.07100000  0.00000000
Si       Si   0.15730000  0.77400000  0.42900000  0.00000000
Si       Si   0.34270000  0.72600000  0.57100000  0.00000000
Si       Si   0.15730000  0.22600000  0.57100000  0.00000000
Si       Si   0.65730000  0.27400000  0.07100000  0.00000000
Si       Si   0.84270000  0.22600000  0.57100000  0.00000000
Si       Si   0.34270000  0.27400000  0.07100000  0.00000000
Si       Si   0.65730000  0.27400000  0.42900000  0.00000000
Si       Si   0.65730000  0.72600000  0.57100000  0.00000000
Si       Si   0.84270000  0.77400000  0.42900000  0.00000000
Si       Si   0.15730000  0.22600000  0.92900000  0.00000000
Si       Si   0.15730000  0.77400000  0.07100000  0.00000000
Si       Si   0.84270000  0.22600000  0.92900000  0.00000000
Si       Si   0.65730000  0.72600000  0.92900000  0.00000000
O        O    0.32330000  0.00000000  0.50000000  0.00000000
O        O    0.17670000  0.50000000  0.50000000  0.00000000
O        O    0.32330000  0.00000000  0.00000000  0.00000000
O        O    0.67670000  0.00000000  0.50000000  0.00000000
O        O    0.82330000  0.50000000  0.50000000  0.00000000
O        O    0.17670000  0.50000000  0.00000000  0.00000000
O        O    0.82330000  0.50000000  0.00000000  0.00000000
O        O    0.67670000  0.00000000  0.00000000  0.00000000
O        O    0.50000000  0.50000000  0.50000000  0.00000000
O        O    0.00000000  0.00000000  0.50000000  0.00000000
O        O    0.00000000  0.00000000  0.00000000  0.00000000
O        O    0.50000000  0.50000000  0.00000000  0.00000000
O        O    0.32280000  0.90200000  0.25000000  0.00000000
O        O    0.32280000  0.09800000  0.75000000  0.00000000
O        O    0.67720000  0.09800000  0.75000000  0.00000000
O        O    0.82280000  0.59800000  0.75000000  0.00000000
O        O    0.17720000  0.40200000  0.25000000  0.00000000
O        O    0.17720000  0.59800000  0.75000000  0.00000000
O        O    0.82280000  0.40200000  0.25000000  0.00000000
O        O    0.67720000  0.90200000  0.25000000  0.00000000
O        O    0.50000000  0.37300000  0.25000000  0.00000000
O        O    0.00000000  0.87300000  0.25000000  0.00000000
O        O    0.00000000  0.12700000  0.75000000  0.00000000
O        O    0.50000000  0.62700000  0.75000000  0.00000000
O        O    0.45440000  0.63300000  0.01800000  0.00000000
O        O    0.45440000  0.36700000  0.51800000  0.00000000
O        O    0.95440000  0.86700000  0.98200000  0.00000000
O        O    0.04560000  0.86700000  0.51800000  0.00000000
O        O    0.45440000  0.63300000  0.48200000  0.00000000
O        O    0.04560000  0.13300000  0.48200000  0.00000000
O        O    0.54560000  0.36700000  0.98200000  0.00000000
O        O    0.95440000  0.13300000  0.48200000  0.00000000
O        O    0.45440000  0.36700000  0.98200000  0.00000000
O        O    0.54560000  0.36700000  0.51800000  0.00000000
O        O    0.54560000  0.63300000  0.48200000  0.00000000
O        O    0.95440000  0.86700000  0.51800000  0.00000000
O        O    0.04560000  0.13300000  0.01800000  0.00000000
O        O    0.04560000  0.86700000  0.98200000  0.00000000
O        O    0.95440000  0.13300000  0.01800000  0.00000000
O        O    0.54560000  0.63300000  0.01800000  0.00000000
O        O    0.26830000  0.89400000  0.02000000  0.00000000
O        O    0.26830000  0.10600000  0.52000000  0.00000000
O        O    0.76830000  0.60600000  0.98000000  0.00000000
O        O    0.23170000  0.60600000  0.52000000  0.00000000
O        O    0.26830000  0.89400000  0.48000000  0.00000000
O        O    0.23170000  0.39400000  0.48000000  0.00000000
O        O    0.73170000  0.10600000  0.98000000  0.00000000
O        O    0.76830000  0.39400000  0.48000000  0.00000000
O        O    0.26830000  0.10600000  0.98000000  0.00000000
O        O    0.73170000  0.10600000  0.52000000  0.00000000
O        O    0.73170000  0.89400000  0.48000000  0.00000000
O        O    0.76830000  0.60600000  0.52000000  0.00000000
O        O    0.23170000  0.39400000  0.02000000  0.00000000
O        O    0.23170000  0.60600000  0.98000000  0.00000000
O        O    0.76830000  0.39400000  0.02000000  0.00000000
O        O    0.73170000  0.89400000  0.02000000  0.00000000
O        O    0.34200000  0.82400000  0.03100000  0.00000000
O        O    0.34200000  0.17600000  0.53100000  0.00000000
O        O    0.84200000  0.67600000  0.96900000  0.00000000
O        O    0.15800000  0.67600000  0.53100000  0.00000000
O        O    0.34200000  0.82400000  0.46900000  0.00000000
O        O    0.15800000  0.32400000  0.46900000  0.00000000
O        O    0.65800000  0.17600000  0.96900000  0.00000000
O        O    0.84200000  0.32400000  0.46900000  0.00000000
O        O    0.34200000  0.17600000  0.96900000  0.00000000
O        O    0.65800000  0.17600000  0.53100000  0.00000000
O        O    0.65800000  0.82400000  0.46900000  0.00000000
O        O    0.84200000  0.67600000  0.53100000  0.00000000
O        O    0.15800000  0.32400000  0.03100000  0.00000000
O        O    0.15800000  0.67600000  0.96900000  0.00000000
O        O    0.84200000  0.32400000  0.03100000  0.00000000
O        O    0.65800000  0.82400000  0.03100000  0.00000000
O        O    0.30070000  0.67500000  0.01700000  0.00000000
O        O    0.30070000  0.32500000  0.51700000  0.00000000
O        O    0.80070000  0.82500000  0.98300000  0.00000000
O        O    0.19930000  0.82500000  0.51700000  0.00000000
O        O    0.30070000  0.67500000  0.48300000  0.00000000
O        O    0.19930000  0.17500000  0.48300000  0.00000000
O        O    0.69930000  0.32500000  0.98300000  0.00000000
O        O    0.80070000  0.17500000  0.48300000  0.00000000
O        O    0.30070000  0.32500000  0.98300000  0.00000000
O        O    0.69930000  0.32500000  0.51700000  0.00000000
O        O    0.69930000  0.67500000  0.48300000  0.00000000
O        O    0.80070000  0.82500000  0.51700000  0.00000000
O        O    0.19930000  0.17500000  0.01700000  0.00000000
O        O    0.19930000  0.82500000  0.98300000  0.00000000
O        O    0.80070000  0.17500000  0.01700000  0.00000000
O        O    0.69930000  0.67500000  0.01700000  0.00000000
O        O    0.40940000  0.50000000  0.50000000  0.00000000
O        O    0.09060000  0.00000000  0.50000000  0.00000000
O        O    0.40940000  0.50000000  0.00000000  0.00000000
O        O    0.59060000  0.50000000  0.50000000  0.00000000
O        O    0.90940000  0.00000000  0.50000000  0.00000000
O        O    0.09060000  0.00000000  0.00000000  0.00000000
O        O    0.90940000  0.00000000  0.00000000  0.00000000
O        O    0.59060000  0.50000000  0.00000000  0.00000000
O        O    0.41530000  0.59600000  0.25000000  0.00000000
O        O    0.41530000  0.40400000  0.75000000  0.00000000
O        O    0.58470000  0.40400000  0.75000000  0.00000000
O        O    0.91530000  0.90400000  0.75000000  0.00000000
O        O    0.08470000  0.09600000  0.25000000  0.00000000
O        O    0.08470000  0.90400000  0.75000000  0.00000000
O        O    0.91530000  0.09600000  0.25000000  0.00000000
O        O    0.58470000  0.59600000  0.25000000  0.00000000
O        O    0.24100000  0.87800000  0.75000000  0.00000000
O        O    0.24100000  0.12200000  0.25000000  0.00000000
O        O    0.75900000  0.12200000  0.25000000  0.00000000
O        O    0.74100000  0.62200000  0.25000000  0.00000000
O        O    0.25900000  0.37800000  0.75000000  0.00000000
O        O    0.25900000  0.62200000  0.25000000  0.00000000
O        O    0.74100000  0.37800000  0.75000000  0.00000000
O        O    0.75900000  0.87800000  0.75000000  0.00000000
O        O    0.35560000  0.73200000  0.75000000  0.00000000
O        O    0.35560000  0.26800000  0.25000000  0.00000000
O        O    0.64440000  0.26800000  0.25000000  0.00000000
O        O    0.85560000  0.76800000  0.25000000  0.00000000
O        O    0.14440000  0.23200000  0.75000000  0.00000000
O        O    0.14440000  0.76800000  0.25000000  0.00000000
O        O    0.85560000  0.23200000  0.75000000  0.00000000
O        O    0.64440000  0.73200000  0.75000000  0.00000000
O        O    0.38460000  0.67400000  0.00200000  0.00000000
O        O    0.38460000  0.32600000  0.50200000  0.00000000
O        O    0.88460000  0.82600000  0.99800000  0.00000000
O        O    0.11540000  0.82600000  0.50200000  0.00000000
O        O    0.38460000  0.67400000  0.49800000  0.00000000
O        O    0.11540000  0.17400000  0.49800000  0.00000000
O        O    0.61540000  0.32600000  0.99800000  0.00000000
O        O    0.88460000  0.17400000  0.49800000  0.00000000
O        O    0.38460000  0.32600000  0.99800000  0.00000000
O        O    0.61540000  0.32600000  0.50200000  0.00000000
O        O    0.61540000  0.67400000  0.49800000  0.00000000
O        O    0.88460000  0.82600000  0.50200000  0.00000000
O        O    0.11540000  0.17400000  0.00200000  0.00000000
O        O    0.11540000  0.82600000  0.99800000  0.00000000
O        O    0.88460000  0.17400000  0.00200000  0.00000000
O        O    0.61540000  0.67400000  0.00200000  0.00000000
O        O    0.21350000  0.00000000  0.50000000  0.00000000
O        O    0.28650000  0.50000000  0.50000000  0.00000000
O        O    0.21350000  0.00000000  0.00000000  0.00000000
O        O    0.78650000  0.00000000  0.50000000  0.00000000
O        O    0.71350000  0.50000000  0.50000000  0.00000000
O        O    0.28650000  0.50000000  0.00000000  0.00000000
O        O    0.71350000  0.50000000  0.00000000  0.00000000
O        O    0.78650000  0.00000000  0.00000000  0.00000000
