data_AlPO-17

_cell_length_a  13.23710000
_cell_length_b  13.23710000
_cell_length_c  14.77080000
_cell_angle_alpha  90.00000000
_cell_angle_beta  90.00000000
_cell_angle_gamma  120.00000000


_symmetry_space_group_name_Hall ' P 1'
_symmetry_space_group_name_H-M  'P 1'
_symmetry_Int_Tables_number     1

loop_
_atom_site_label
_atom_site_type_symbol
_atom_site_fract_x
_atom_site_fract_y
_atom_site_fract_z
_atom_site_charge
Al       Al   0.22920000  0.00170000  0.61800000  1.75000000
Al       Al   0.77080000  0.99830000  0.11800000  1.75000000
Al       Al   0.00170000  0.77250000  0.38200000  1.75000000
Al       Al   0.77250000  0.77080000  0.88200000  1.75000000
Al       Al   0.77250000  0.77080000  0.61800000  1.75000000
Al       Al   0.99830000  0.22750000  0.61800000  1.75000000
Al       Al   0.22920000  0.00170000  0.88200000  1.75000000
Al       Al   0.99830000  0.22750000  0.88200000  1.75000000
Al       Al   0.00170000  0.77250000  0.11800000  1.75000000
Al       Al   0.22750000  0.22920000  0.38200000  1.75000000
Al       Al   0.77080000  0.99830000  0.38200000  1.75000000
Al       Al   0.22750000  0.22920000  0.11800000  1.75000000
Al       Al   0.67850000  0.09990000  0.75000000  1.75000000
Al       Al   0.90010000  0.57860000  0.75000000  1.75000000
Al       Al   0.42140000  0.32150000  0.75000000  1.75000000
Al       Al   0.57860000  0.67850000  0.25000000  1.75000000
Al       Al   0.09990000  0.42140000  0.25000000  1.75000000
Al       Al   0.32150000  0.90010000  0.25000000  1.75000000
P        P    0.00110000  0.76310000  0.59380000  2.35000000
P        P    0.99890000  0.23690000  0.09380000  2.35000000
P        P    0.76310000  0.76200000  0.40620000  2.35000000
P        P    0.76200000  0.99890000  0.90620000  2.35000000
P        P    0.76200000  0.99890000  0.59380000  2.35000000
P        P    0.23690000  0.23800000  0.59380000  2.35000000
P        P    0.00110000  0.76310000  0.90620000  2.35000000
P        P    0.23690000  0.23800000  0.90620000  2.35000000
P        P    0.76310000  0.76200000  0.09380000  2.35000000
P        P    0.23800000  0.00110000  0.40620000  2.35000000
P        P    0.99890000  0.23690000  0.40620000  2.35000000
P        P    0.23800000  0.00110000  0.09380000  2.35000000
P        P    0.65960000  0.56750000  0.75000000  2.35000000
P        P    0.43250000  0.09210000  0.75000000  2.35000000
P        P    0.90790000  0.34040000  0.75000000  2.35000000
P        P    0.09210000  0.65960000  0.25000000  2.35000000
P        P    0.56750000  0.90790000  0.25000000  2.35000000
P        P    0.34040000  0.43250000  0.25000000  2.35000000
O        O    0.96350000  0.65650000  0.65290000 -1.02500000
O        O    0.03650000  0.34350000  0.15290000 -1.02500000
O        O    0.65650000  0.69300000  0.34710000 -1.02500000
O        O    0.69300000  0.03650000  0.84710000 -1.02500000
O        O    0.69300000  0.03650000  0.65290000 -1.02500000
O        O    0.34350000  0.30700000  0.65290000 -1.02500000
O        O    0.96350000  0.65650000  0.84710000 -1.02500000
O        O    0.34350000  0.30700000  0.84710000 -1.02500000
O        O    0.65650000  0.69300000  0.15290000 -1.02500000
O        O    0.30700000  0.96350000  0.34710000 -1.02500000
O        O    0.03650000  0.34350000  0.34710000 -1.02500000
O        O    0.30700000  0.96350000  0.15290000 -1.02500000
O        O    0.36270000  0.03310000  0.66490000 -1.02500000
O        O    0.63730000  0.96690000  0.16490000 -1.02500000
O        O    0.03310000  0.67040000  0.33510000 -1.02500000
O        O    0.67040000  0.63730000  0.83510000 -1.02500000
O        O    0.67040000  0.63730000  0.66490000 -1.02500000
O        O    0.96690000  0.32960000  0.66490000 -1.02500000
O        O    0.36270000  0.03310000  0.83510000 -1.02500000
O        O    0.96690000  0.32960000  0.83510000 -1.02500000
O        O    0.03310000  0.67040000  0.16490000 -1.02500000
O        O    0.32960000  0.36270000  0.33510000 -1.02500000
O        O    0.63730000  0.96690000  0.33510000 -1.02500000
O        O    0.32960000  0.36270000  0.16490000 -1.02500000
O        O    0.91740000  0.80900000  0.60530000 -1.02500000
O        O    0.08260000  0.19100000  0.10530000 -1.02500000
O        O    0.80900000  0.89160000  0.39470000 -1.02500000
O        O    0.89160000  0.08260000  0.89470000 -1.02500000
O        O    0.89160000  0.08260000  0.60530000 -1.02500000
O        O    0.19100000  0.10840000  0.60530000 -1.02500000
O        O    0.91740000  0.80900000  0.89470000 -1.02500000
O        O    0.19100000  0.10840000  0.89470000 -1.02500000
O        O    0.80900000  0.89160000  0.10530000 -1.02500000
O        O    0.10840000  0.91740000  0.39470000 -1.02500000
O        O    0.08260000  0.19100000  0.39470000 -1.02500000
O        O    0.10840000  0.91740000  0.10530000 -1.02500000
O        O    0.85680000  0.73600000  0.12440000 -1.02500000
O        O    0.14320000  0.26400000  0.62440000 -1.02500000
O        O    0.73600000  0.87920000  0.87560000 -1.02500000
O        O    0.87920000  0.14320000  0.37560000 -1.02500000
O        O    0.87920000  0.14320000  0.12440000 -1.02500000
O        O    0.26400000  0.12080000  0.12440000 -1.02500000
O        O    0.85680000  0.73600000  0.37560000 -1.02500000
O        O    0.26400000  0.12080000  0.37560000 -1.02500000
O        O    0.73600000  0.87920000  0.62440000 -1.02500000
O        O    0.12080000  0.85680000  0.87560000 -1.02500000
O        O    0.14320000  0.26400000  0.87560000 -1.02500000
O        O    0.12080000  0.85680000  0.62440000 -1.02500000
O        O    0.72270000  0.99700000  0.49700000 -1.02500000
O        O    0.27730000  0.00300000  0.99700000 -1.02500000
O        O    0.99700000  0.27430000  0.50300000 -1.02500000
O        O    0.27430000  0.27730000  0.00300000 -1.02500000
O        O    0.27430000  0.27730000  0.49700000 -1.02500000
O        O    0.00300000  0.72570000  0.49700000 -1.02500000
O        O    0.72270000  0.99700000  0.00300000 -1.02500000
O        O    0.00300000  0.72570000  0.00300000 -1.02500000
O        O    0.99700000  0.27430000  0.99700000 -1.02500000
O        O    0.72570000  0.72270000  0.50300000 -1.02500000
O        O    0.27730000  0.00300000  0.50300000 -1.02500000
O        O    0.72570000  0.72270000  0.99700000 -1.02500000
O        O    0.77750000  0.24680000  0.75000000 -1.02500000
O        O    0.75320000  0.53070000  0.75000000 -1.02500000
O        O    0.46930000  0.22250000  0.75000000 -1.02500000
O        O    0.53070000  0.77750000  0.25000000 -1.02500000
O        O    0.24680000  0.46930000  0.25000000 -1.02500000
O        O    0.22250000  0.75320000  0.25000000 -1.02500000
O        O    0.54130000  0.45840000  0.75000000 -1.02500000
O        O    0.54160000  0.08290000  0.75000000 -1.02500000
O        O    0.91710000  0.45870000  0.75000000 -1.02500000
O        O    0.08290000  0.54130000  0.25000000 -1.02500000
O        O    0.45840000  0.91710000  0.25000000 -1.02500000
O        O    0.45870000  0.54160000  0.25000000 -1.02500000
