data_ATS

_cell_length_a  12.63377455
_cell_length_b  12.63377455
_cell_length_c  5.16390000
_cell_angle_alpha  89.04265193
_cell_angle_beta  89.04265193
_cell_angle_gamma  117.28677958


_symmetry_space_group_name_Hall ' P 1'
_symmetry_space_group_name_H-M  'P 1'
_symmetry_Int_Tables_number     1

loop_
_atom_site_label
_atom_site_type_symbol
_atom_site_fract_x
_atom_site_fract_y
_atom_site_fract_z
_atom_site_charge
Si       Si   0.66000000  0.57800000  0.23300000  0.00000000
Si       Si   0.34000000  0.42200000  0.76700000  0.00000000
Si       Si   0.57800000  0.66000000  0.73300000  0.00000000
Si       Si   0.42200000  0.34000000  0.26700000  0.00000000
Si       Si   0.48800000  0.14000000  0.23200000  0.00000000
Si       Si   0.51200000  0.86000000  0.76800000  0.00000000
Si       Si   0.14000000  0.48800000  0.73200000  0.00000000
Si       Si   0.86000000  0.51200000  0.26800000  0.00000000
Si       Si   0.86000000  0.37400000  0.77700000  0.00000000
Si       Si   0.14000000  0.62600000  0.22300000  0.00000000
Si       Si   0.37400000  0.86000000  0.27700000  0.00000000
Si       Si   0.62600000  0.14000000  0.72300000  0.00000000
O        O    0.79100000  0.58900000  0.22700000  0.00000000
O        O    0.20900000  0.41100000  0.77300000  0.00000000
O        O    0.58900000  0.79100000  0.72700000  0.00000000
O        O    0.41100000  0.20900000  0.27300000  0.00000000
O        O    0.45200000  0.54800000  0.75000000  0.00000000
O        O    0.54800000  0.45200000  0.25000000  0.00000000
O        O    0.83400000  0.41000000  0.06600000  0.00000000
O        O    0.16600000  0.59000000  0.93400000  0.00000000
O        O    0.41000000  0.83400000  0.56600000  0.00000000
O        O    0.59000000  0.16600000  0.43400000  0.00000000
O        O    0.54300000  0.16500000  0.93100000  0.00000000
O        O    0.45700000  0.83500000  0.06900000  0.00000000
O        O    0.16500000  0.54300000  0.43100000  0.00000000
O        O    0.83500000  0.45700000  0.56900000  0.00000000
O        O    0.23500000  0.76500000  0.25000000  0.00000000
O        O    0.76500000  0.23500000  0.75000000  0.00000000
O        O    0.64600000  0.64400000  0.97800000  0.00000000
O        O    0.35400000  0.35600000  0.02200000  0.00000000
O        O    0.64400000  0.64600000  0.47800000  0.00000000
O        O    0.35600000  0.35400000  0.52200000  0.00000000
O        O    0.00600000  0.61600000  0.25200000  0.00000000
O        O    0.99400000  0.38400000  0.74800000  0.00000000
O        O    0.61600000  0.00600000  0.75200000  0.00000000
O        O    0.38400000  0.99400000  0.24800000  0.00000000
