data_ATS

_cell_length_a  13.14830000
_cell_length_b  21.57710000
_cell_length_c  5.16390000
_cell_angle_alpha  90.00000000
_cell_angle_beta  91.84000000
_cell_angle_gamma  90.00000000


_symmetry_space_group_name_Hall ' P 1'
_symmetry_space_group_name_H-M  'P 1'
_symmetry_Int_Tables_number     1

loop_
_atom_site_label
_atom_site_type_symbol
_atom_site_fract_x
_atom_site_fract_y
_atom_site_fract_z
_atom_site_charge
Si       Si   0.61900000  0.04100000  0.76700000  0.00000000
Si       Si   0.38100000  0.95900000  0.23300000  0.00000000
Si       Si   0.61900000  0.95900000  0.26700000  0.00000000
Si       Si   0.88100000  0.54100000  0.73300000  0.00000000
Si       Si   0.88100000  0.45900000  0.23300000  0.00000000
Si       Si   0.11900000  0.45900000  0.26700000  0.00000000
Si       Si   0.38100000  0.04100000  0.73300000  0.00000000
Si       Si   0.11900000  0.54100000  0.76700000  0.00000000
Si       Si   0.31400000  0.17400000  0.76800000  0.00000000
Si       Si   0.68600000  0.82600000  0.23200000  0.00000000
Si       Si   0.31400000  0.82600000  0.26800000  0.00000000
Si       Si   0.18600000  0.67400000  0.73200000  0.00000000
Si       Si   0.18600000  0.32600000  0.23200000  0.00000000
Si       Si   0.81400000  0.32600000  0.26800000  0.00000000
Si       Si   0.68600000  0.17400000  0.73200000  0.00000000
Si       Si   0.81400000  0.67400000  0.76800000  0.00000000
Si       Si   0.61700000  0.24300000  0.22300000  0.00000000
Si       Si   0.38300000  0.75700000  0.77700000  0.00000000
Si       Si   0.61700000  0.75700000  0.72300000  0.00000000
Si       Si   0.88300000  0.74300000  0.27700000  0.00000000
Si       Si   0.88300000  0.25700000  0.77700000  0.00000000
Si       Si   0.11700000  0.25700000  0.72300000  0.00000000
Si       Si   0.38300000  0.24300000  0.27700000  0.00000000
Si       Si   0.11700000  0.74300000  0.22300000  0.00000000
O        O    0.69000000  0.10100000  0.77300000  0.00000000
O        O    0.31000000  0.89900000  0.22700000  0.00000000
O        O    0.69000000  0.89900000  0.27300000  0.00000000
O        O    0.81000000  0.60100000  0.72700000  0.00000000
O        O    0.81000000  0.39900000  0.22700000  0.00000000
O        O    0.19000000  0.39900000  0.27300000  0.00000000
O        O    0.31000000  0.10100000  0.72700000  0.00000000
O        O    0.19000000  0.60100000  0.77300000  0.00000000
O        O    0.50000000  0.95200000  0.25000000  0.00000000
O        O    0.00000000  0.45200000  0.25000000  0.00000000
O        O    0.50000000  0.04800000  0.75000000  0.00000000
O        O    0.00000000  0.54800000  0.75000000  0.00000000
O        O    0.62200000  0.21200000  0.93400000  0.00000000
O        O    0.37800000  0.78800000  0.06600000  0.00000000
O        O    0.62200000  0.78800000  0.43400000  0.00000000
O        O    0.87800000  0.71200000  0.56600000  0.00000000
O        O    0.87800000  0.28800000  0.06600000  0.00000000
O        O    0.12200000  0.28800000  0.43400000  0.00000000
O        O    0.37800000  0.21200000  0.56600000  0.00000000
O        O    0.12200000  0.71200000  0.93400000  0.00000000
O        O    0.35400000  0.18900000  0.06900000  0.00000000
O        O    0.64600000  0.81100000  0.93100000  0.00000000
O        O    0.35400000  0.81100000  0.56900000  0.00000000
O        O    0.14600000  0.68900000  0.43100000  0.00000000
O        O    0.14600000  0.31100000  0.93100000  0.00000000
O        O    0.85400000  0.31100000  0.56900000  0.00000000
O        O    0.64600000  0.18900000  0.43100000  0.00000000
O        O    0.85400000  0.68900000  0.06900000  0.00000000
O        O    0.50000000  0.73500000  0.75000000  0.00000000
O        O    0.00000000  0.23500000  0.75000000  0.00000000
O        O    0.50000000  0.26500000  0.25000000  0.00000000
O        O    0.00000000  0.76500000  0.25000000  0.00000000
O        O    0.64500000  0.00100000  0.02200000  0.00000000
O        O    0.35500000  0.99900000  0.97800000  0.00000000
O        O    0.64500000  0.99900000  0.52200000  0.00000000
O        O    0.85500000  0.50100000  0.47800000  0.00000000
O        O    0.85500000  0.49900000  0.97800000  0.00000000
O        O    0.14500000  0.49900000  0.52200000  0.00000000
O        O    0.35500000  0.00100000  0.47800000  0.00000000
O        O    0.14500000  0.50100000  0.02200000  0.00000000
O        O    0.81100000  0.19500000  0.74800000  0.00000000
O        O    0.18900000  0.80500000  0.25200000  0.00000000
O        O    0.81100000  0.80500000  0.24800000  0.00000000
O        O    0.68900000  0.69500000  0.75200000  0.00000000
O        O    0.68900000  0.30500000  0.25200000  0.00000000
O        O    0.31100000  0.30500000  0.24800000  0.00000000
O        O    0.18900000  0.19500000  0.75200000  0.00000000
O        O    0.31100000  0.69500000  0.74800000  0.00000000
