data_BEA

_cell_length_a  12.66100000
_cell_length_b  12.66100000
_cell_length_c  26.40600000
_cell_angle_alpha  90.00000000
_cell_angle_beta  90.00000000
_cell_angle_gamma  90.00000000


_symmetry_space_group_name_Hall ' P 1'
_symmetry_space_group_name_H-M  'P 1'
_symmetry_Int_Tables_number     1

loop_
_atom_site_label
_atom_site_type_symbol
_atom_site_fract_x
_atom_site_fract_y
_atom_site_fract_z
_atom_site_charge
Si       Si   0.20723000  0.33694000  0.30619000  0.00000000
Si       Si   0.66306000  0.79277000  0.94381000  0.00000000
Si       Si   0.33694000  0.79277000  0.05619000  0.00000000
Si       Si   0.33694000  0.20723000  0.44381000  0.00000000
Si       Si   0.66306000  0.20723000  0.55619000  0.00000000
Si       Si   0.20723000  0.66306000  0.19381000  0.00000000
Si       Si   0.79277000  0.66306000  0.80619000  0.00000000
Si       Si   0.79277000  0.33694000  0.69381000  0.00000000
Si       Si   0.45969000  0.33711000  0.30606000  0.00000000
Si       Si   0.66289000  0.54031000  0.94394000  0.00000000
Si       Si   0.33711000  0.54031000  0.05606000  0.00000000
Si       Si   0.33711000  0.45969000  0.44394000  0.00000000
Si       Si   0.66289000  0.45969000  0.55606000  0.00000000
Si       Si   0.45969000  0.66289000  0.19394000  0.00000000
Si       Si   0.54031000  0.66289000  0.80606000  0.00000000
Si       Si   0.54031000  0.33711000  0.69394000  0.00000000
Si       Si   0.20700000  0.71647000  0.30872000  0.00000000
Si       Si   0.28353000  0.79300000  0.94128000  0.00000000
Si       Si   0.71647000  0.79300000  0.05872000  0.00000000
Si       Si   0.71647000  0.20700000  0.44128000  0.00000000
Si       Si   0.28353000  0.20700000  0.55872000  0.00000000
Si       Si   0.20700000  0.28353000  0.19128000  0.00000000
Si       Si   0.79300000  0.28353000  0.80872000  0.00000000
Si       Si   0.79300000  0.71647000  0.69128000  0.00000000
Si       Si   0.45924000  0.71656000  0.30884000  0.00000000
Si       Si   0.28344000  0.54076000  0.94116000  0.00000000
Si       Si   0.71656000  0.54076000  0.05884000  0.00000000
Si       Si   0.71656000  0.45924000  0.44116000  0.00000000
Si       Si   0.28344000  0.45924000  0.55884000  0.00000000
Si       Si   0.45924000  0.28344000  0.19116000  0.00000000
Si       Si   0.54076000  0.28344000  0.80884000  0.00000000
Si       Si   0.54076000  0.71656000  0.69116000  0.00000000
Si       Si   0.20636000  0.95425000  0.30555000  0.00000000
Si       Si   0.04575000  0.79364000  0.94445000  0.00000000
Si       Si   0.95425000  0.79364000  0.05555000  0.00000000
Si       Si   0.95425000  0.20636000  0.44445000  0.00000000
Si       Si   0.04575000  0.20636000  0.55555000  0.00000000
Si       Si   0.20636000  0.04575000  0.19445000  0.00000000
Si       Si   0.79364000  0.04575000  0.80555000  0.00000000
Si       Si   0.79364000  0.95425000  0.69445000  0.00000000
Si       Si   0.45960000  0.95434000  0.30556000  0.00000000
Si       Si   0.04566000  0.54040000  0.94444000  0.00000000
Si       Si   0.95434000  0.54040000  0.05556000  0.00000000
Si       Si   0.95434000  0.45960000  0.44444000  0.00000000
Si       Si   0.04566000  0.45960000  0.55556000  0.00000000
Si       Si   0.45960000  0.04566000  0.19444000  0.00000000
Si       Si   0.54040000  0.04566000  0.80556000  0.00000000
Si       Si   0.54040000  0.95434000  0.69444000  0.00000000
Si       Si   0.14278000  0.14278000  0.37500000  0.00000000
Si       Si   0.14278000  0.85722000  0.12500000  0.00000000
Si       Si   0.85722000  0.85722000  0.87500000  0.00000000
Si       Si   0.85722000  0.14278000  0.62500000  0.00000000
Si       Si   0.14298000  0.52836000  0.37552000  0.00000000
Si       Si   0.47164000  0.85702000  0.87448000  0.00000000
Si       Si   0.52836000  0.85702000  0.12552000  0.00000000
Si       Si   0.52836000  0.14298000  0.37448000  0.00000000
Si       Si   0.47164000  0.14298000  0.62552000  0.00000000
Si       Si   0.14298000  0.47164000  0.12448000  0.00000000
Si       Si   0.85702000  0.47164000  0.87552000  0.00000000
Si       Si   0.85702000  0.52836000  0.62448000  0.00000000
Si       Si   0.52842000  0.52842000  0.37500000  0.00000000
Si       Si   0.52842000  0.47158000  0.12500000  0.00000000
Si       Si   0.47158000  0.47158000  0.87500000  0.00000000
Si       Si   0.47158000  0.52842000  0.62500000  0.00000000
O        O    0.33348000  0.33623000  0.31515000  0.00000000
O        O    0.66377000  0.66652000  0.93485000  0.00000000
O        O    0.33623000  0.66652000  0.06515000  0.00000000
O        O    0.33623000  0.33348000  0.43485000  0.00000000
O        O    0.66377000  0.33348000  0.56515000  0.00000000
O        O    0.33348000  0.66377000  0.18485000  0.00000000
O        O    0.66652000  0.66377000  0.81515000  0.00000000
O        O    0.66652000  0.33623000  0.68485000  0.00000000
O        O    0.18268000  0.33454000  0.24615000  0.00000000
O        O    0.66546000  0.81732000  0.00385000  0.00000000
O        O    0.33454000  0.81732000  0.99615000  0.00000000
O        O    0.33454000  0.18268000  0.50385000  0.00000000
O        O    0.66546000  0.18268000  0.49615000  0.00000000
O        O    0.18268000  0.66546000  0.25385000  0.00000000
O        O    0.81732000  0.66546000  0.74615000  0.00000000
O        O    0.81732000  0.33454000  0.75385000  0.00000000
O        O    0.15543000  0.23433000  0.33279000  0.00000000
O        O    0.76567000  0.84457000  0.91721000  0.00000000
O        O    0.23433000  0.84457000  0.08279000  0.00000000
O        O    0.23433000  0.15543000  0.41721000  0.00000000
O        O    0.76567000  0.15543000  0.58279000  0.00000000
O        O    0.15543000  0.76567000  0.16721000  0.00000000
O        O    0.84457000  0.76567000  0.83279000  0.00000000
O        O    0.84457000  0.23433000  0.66721000  0.00000000
O        O    0.15724000  0.44268000  0.33069000  0.00000000
O        O    0.55732000  0.84276000  0.91931000  0.00000000
O        O    0.44268000  0.84276000  0.08069000  0.00000000
O        O    0.44268000  0.15724000  0.41931000  0.00000000
O        O    0.55732000  0.15724000  0.58069000  0.00000000
O        O    0.15724000  0.55732000  0.16931000  0.00000000
O        O    0.84276000  0.55732000  0.83069000  0.00000000
O        O    0.84276000  0.44268000  0.66931000  0.00000000
O        O    0.48388000  0.33456000  0.24598000  0.00000000
O        O    0.66544000  0.51612000  0.00402000  0.00000000
O        O    0.33456000  0.51612000  0.99598000  0.00000000
O        O    0.33456000  0.48388000  0.50402000  0.00000000
O        O    0.66544000  0.48388000  0.49598000  0.00000000
O        O    0.48388000  0.66544000  0.25402000  0.00000000
O        O    0.51612000  0.66544000  0.74598000  0.00000000
O        O    0.51612000  0.33456000  0.75402000  0.00000000
O        O    0.51178000  0.23464000  0.33264000  0.00000000
O        O    0.76536000  0.48822000  0.91736000  0.00000000
O        O    0.23464000  0.48822000  0.08264000  0.00000000
O        O    0.23464000  0.51178000  0.41736000  0.00000000
O        O    0.76536000  0.51178000  0.58264000  0.00000000
O        O    0.51178000  0.76536000  0.16736000  0.00000000
O        O    0.48822000  0.76536000  0.83264000  0.00000000
O        O    0.48822000  0.23464000  0.66736000  0.00000000
O        O    0.50962000  0.44301000  0.33043000  0.00000000
O        O    0.55699000  0.49038000  0.91957000  0.00000000
O        O    0.44301000  0.49038000  0.08043000  0.00000000
O        O    0.44301000  0.50962000  0.41957000  0.00000000
O        O    0.55699000  0.50962000  0.58043000  0.00000000
O        O    0.50962000  0.55699000  0.16957000  0.00000000
O        O    0.49038000  0.55699000  0.83043000  0.00000000
O        O    0.49038000  0.44301000  0.66957000  0.00000000
O        O    0.33310000  0.71891000  0.31809000  0.00000000
O        O    0.28109000  0.66690000  0.93191000  0.00000000
O        O    0.71891000  0.66690000  0.06809000  0.00000000
O        O    0.71891000  0.33310000  0.43191000  0.00000000
O        O    0.28109000  0.33310000  0.56809000  0.00000000
O        O    0.33310000  0.28109000  0.18191000  0.00000000
O        O    0.66690000  0.28109000  0.81809000  0.00000000
O        O    0.66690000  0.71891000  0.68191000  0.00000000
O        O    0.16098000  0.83544000  0.31074000  0.00000000
O        O    0.16456000  0.83902000  0.93926000  0.00000000
O        O    0.83544000  0.83902000  0.06074000  0.00000000
O        O    0.83544000  0.16098000  0.43926000  0.00000000
O        O    0.16456000  0.16098000  0.56074000  0.00000000
O        O    0.16098000  0.16456000  0.18926000  0.00000000
O        O    0.83902000  0.16456000  0.81074000  0.00000000
O        O    0.83902000  0.83544000  0.68926000  0.00000000
O        O    0.15126000  0.64609000  0.35222000  0.00000000
O        O    0.35391000  0.84874000  0.89778000  0.00000000
O        O    0.64609000  0.84874000  0.10222000  0.00000000
O        O    0.64609000  0.15126000  0.39778000  0.00000000
O        O    0.35391000  0.15126000  0.60222000  0.00000000
O        O    0.15126000  0.35391000  0.14778000  0.00000000
O        O    0.84874000  0.35391000  0.85222000  0.00000000
O        O    0.84874000  0.64609000  0.64778000  0.00000000
O        O    0.50510000  0.83559000  0.31084000  0.00000000
O        O    0.16441000  0.49490000  0.93916000  0.00000000
O        O    0.83559000  0.49490000  0.06084000  0.00000000
O        O    0.83559000  0.50510000  0.43916000  0.00000000
O        O    0.16441000  0.50510000  0.56084000  0.00000000
O        O    0.50510000  0.16441000  0.18916000  0.00000000
O        O    0.49490000  0.16441000  0.81084000  0.00000000
O        O    0.49490000  0.83559000  0.68916000  0.00000000
O        O    0.51482000  0.64627000  0.35242000  0.00000000
O        O    0.35373000  0.48518000  0.89758000  0.00000000
O        O    0.64627000  0.48518000  0.10242000  0.00000000
O        O    0.64627000  0.51482000  0.39758000  0.00000000
O        O    0.35373000  0.51482000  0.60242000  0.00000000
O        O    0.51482000  0.35373000  0.14758000  0.00000000
O        O    0.48518000  0.35373000  0.85242000  0.00000000
O        O    0.48518000  0.64627000  0.64758000  0.00000000
O        O    0.00000000  0.82149000  0.00000000  0.00000000
O        O    0.00000000  0.17851000  0.50000000  0.00000000
O        O    0.17851000  0.00000000  0.25000000  0.00000000
O        O    0.82149000  0.00000000  0.75000000  0.00000000
O        O    0.33298000  0.95304000  0.31321000  0.00000000
O        O    0.04696000  0.66702000  0.93679000  0.00000000
O        O    0.95304000  0.66702000  0.06321000  0.00000000
O        O    0.95304000  0.33298000  0.43679000  0.00000000
O        O    0.04696000  0.33298000  0.56321000  0.00000000
O        O    0.33298000  0.04696000  0.18679000  0.00000000
O        O    0.66702000  0.04696000  0.81321000  0.00000000
O        O    0.66702000  0.95304000  0.68679000  0.00000000
O        O    0.15292000  0.02844000  0.34824000  0.00000000
O        O    0.97156000  0.84708000  0.90176000  0.00000000
O        O    0.02844000  0.84708000  0.09824000  0.00000000
O        O    0.02844000  0.15292000  0.40176000  0.00000000
O        O    0.97156000  0.15292000  0.59824000  0.00000000
O        O    0.15292000  0.97156000  0.15176000  0.00000000
O        O    0.84708000  0.97156000  0.84824000  0.00000000
O        O    0.84708000  0.02844000  0.65176000  0.00000000
O        O    0.00000000  0.51256000  0.00000000  0.00000000
O        O    0.00000000  0.48744000  0.50000000  0.00000000
O        O    0.48744000  0.00000000  0.25000000  0.00000000
O        O    0.51256000  0.00000000  0.75000000  0.00000000
O        O    0.51292000  0.02874000  0.34821000  0.00000000
O        O    0.97126000  0.48708000  0.90179000  0.00000000
O        O    0.02874000  0.48708000  0.09821000  0.00000000
O        O    0.02874000  0.51292000  0.40179000  0.00000000
O        O    0.97126000  0.51292000  0.59821000  0.00000000
O        O    0.51292000  0.97126000  0.15179000  0.00000000
O        O    0.48708000  0.97126000  0.84821000  0.00000000
O        O    0.48708000  0.02874000  0.65179000  0.00000000
