data_BOG_SI

_cell_length_a  16.87919803
_cell_length_b  16.87919803
_cell_length_c  16.87919803
_cell_angle_alpha  90.34890095
_cell_angle_beta  106.34096149
_cell_angle_gamma  135.44340403


_symmetry_space_group_name_Hall ' P 1'
_symmetry_space_group_name_H-M  'P 1'
_symmetry_Int_Tables_number     1

loop_
_atom_site_label
_atom_site_type_symbol
_atom_site_fract_x
_atom_site_fract_y
_atom_site_fract_z
_atom_site_charge
Si       Si   0.48309000  0.48640000  0.12569000  0.00000000
Si       Si   0.48309000  0.35740000  0.99669000  0.00000000
Si       Si   0.86071000  0.48640000  0.50331000  0.00000000
Si       Si   0.51691000  0.64260000  0.00331000  0.00000000
Si       Si   0.13929000  0.51360000  0.49669000  0.00000000
Si       Si   0.86071000  0.35740000  0.37431000  0.00000000
Si       Si   0.13929000  0.64260000  0.62569000  0.00000000
Si       Si   0.51691000  0.51360000  0.87431000  0.00000000
Si       Si   0.13964000  0.30563000  0.28587000  0.00000000
Si       Si   0.13964000  0.85377000  0.83401000  0.00000000
Si       Si   0.51976000  0.30563000  0.66599000  0.00000000
Si       Si   0.86036000  0.14623000  0.16599000  0.00000000
Si       Si   0.48024000  0.69437000  0.33401000  0.00000000
Si       Si   0.51976000  0.85377000  0.21413000  0.00000000
Si       Si   0.48024000  0.14623000  0.78587000  0.00000000
Si       Si   0.86036000  0.69437000  0.71413000  0.00000000
Si       Si   0.75881000  0.65053000  0.23794000  0.00000000
Si       Si   0.75881000  0.52087000  0.10828000  0.00000000
Si       Si   0.91259000  0.65053000  0.39172000  0.00000000
Si       Si   0.24119000  0.47913000  0.89172000  0.00000000
Si       Si   0.08741000  0.34947000  0.60828000  0.00000000
Si       Si   0.91259000  0.52087000  0.26206000  0.00000000
Si       Si   0.08741000  0.47913000  0.73794000  0.00000000
Si       Si   0.24119000  0.34947000  0.76206000  0.00000000
Si       Si   0.08662000  0.14220000  0.40022000  0.00000000
Si       Si   0.08662000  0.68640000  0.94442000  0.00000000
Si       Si   0.24198000  0.14220000  0.55558000  0.00000000
Si       Si   0.91338000  0.31360000  0.05558000  0.00000000
Si       Si   0.75802000  0.85780000  0.44442000  0.00000000
Si       Si   0.24198000  0.68640000  0.09978000  0.00000000
Si       Si   0.75802000  0.31360000  0.90022000  0.00000000
Si       Si   0.91338000  0.85780000  0.59978000  0.00000000
Si       Si   0.31672000  0.45480000  0.19592000  0.00000000
Si       Si   0.31672000  0.12080000  0.86192000  0.00000000
Si       Si   0.75888000  0.45480000  0.63808000  0.00000000
Si       Si   0.68328000  0.87920000  0.13808000  0.00000000
Si       Si   0.24112000  0.54520000  0.36192000  0.00000000
Si       Si   0.75888000  0.12080000  0.30408000  0.00000000
Si       Si   0.24112000  0.87920000  0.69592000  0.00000000
Si       Si   0.68328000  0.54520000  0.80408000  0.00000000
Si       Si   0.84290000  0.88189000  0.29359000  0.00000000
Si       Si   0.84290000  0.54931000  0.96101000  0.00000000
Si       Si   0.08830000  0.88189000  0.53899000  0.00000000
Si       Si   0.15710000  0.45069000  0.03899000  0.00000000
Si       Si   0.91170000  0.11811000  0.46101000  0.00000000
Si       Si   0.08830000  0.54931000  0.20641000  0.00000000
Si       Si   0.91170000  0.45069000  0.79359000  0.00000000
Si       Si   0.15710000  0.11811000  0.70641000  0.00000000
O        O    0.81730000  0.37910000  0.43820000  0.00000000
O        O    0.18270000  0.62090000  0.56180000  0.00000000
O        O    0.44090000  0.37910000  0.06180000  0.00000000
O        O    0.55910000  0.62090000  0.93820000  0.00000000
O        O    0.61280000  0.56150000  0.20990000  0.00000000
O        O    0.61280000  0.40290000  0.05130000  0.00000000
O        O    0.85160000  0.56150000  0.44870000  0.00000000
O        O    0.38720000  0.59710000  0.94870000  0.00000000
O        O    0.14840000  0.43850000  0.55130000  0.00000000
O        O    0.85160000  0.40290000  0.29010000  0.00000000
O        O    0.14840000  0.59710000  0.70990000  0.00000000
O        O    0.38720000  0.43850000  0.79010000  0.00000000
O        O    0.37290000  0.42230000  0.15940000  0.00000000
O        O    0.37290000  0.21350000  0.95060000  0.00000000
O        O    0.76290000  0.42230000  0.54940000  0.00000000
O        O    0.62710000  0.78650000  0.04940000  0.00000000
O        O    0.23710000  0.57770000  0.45060000  0.00000000
O        O    0.76290000  0.21350000  0.34060000  0.00000000
O        O    0.23710000  0.78650000  0.65940000  0.00000000
O        O    0.62710000  0.57770000  0.84060000  0.00000000
O        O    0.23360000  0.35340000  0.23980000  0.00000000
O        O    0.23360000  0.99380000  0.88020000  0.00000000
O        O    0.61360000  0.35340000  0.61980000  0.00000000
O        O    0.76640000  0.00620000  0.11980000  0.00000000
O        O    0.38640000  0.64660000  0.38020000  0.00000000
O        O    0.61360000  0.99380000  0.26020000  0.00000000
O        O    0.38640000  0.00620000  0.73980000  0.00000000
O        O    0.76640000  0.64660000  0.76020000  0.00000000
O        O    0.15280000  0.24030000  0.34870000  0.00000000
O        O    0.15280000  0.80410000  0.91250000  0.00000000
O        O    0.39160000  0.24030000  0.58750000  0.00000000
O        O    0.84720000  0.19590000  0.08750000  0.00000000
O        O    0.60840000  0.75970000  0.41250000  0.00000000
O        O    0.39160000  0.80410000  0.15130000  0.00000000
O        O    0.60840000  0.19590000  0.84870000  0.00000000
O        O    0.84720000  0.75970000  0.65130000  0.00000000
O        O    0.96240000  0.62310000  0.33930000  0.00000000
O        O    0.03760000  0.37690000  0.66070000  0.00000000
O        O    0.78380000  0.62310000  0.16070000  0.00000000
O        O    0.21620000  0.37690000  0.83930000  0.00000000
O        O    0.80430000  0.63050000  0.32620000  0.00000000
O        O    0.19570000  0.52190000  0.82620000  0.00000000
O        O    0.80430000  0.47810000  0.17380000  0.00000000
O        O    0.19570000  0.36950000  0.67380000  0.00000000
O        O    0.19680000  0.17050000  0.47370000  0.00000000
O        O    0.80320000  0.27690000  0.97370000  0.00000000
O        O    0.19680000  0.72310000  0.02630000  0.00000000
O        O    0.80320000  0.82950000  0.52630000  0.00000000
O        O    0.42600000  0.58250000  0.26770000  0.00000000
O        O    0.42600000  0.15830000  0.84350000  0.00000000
O        O    0.81480000  0.58250000  0.65650000  0.00000000
O        O    0.57400000  0.84170000  0.15650000  0.00000000
O        O    0.18520000  0.41750000  0.34350000  0.00000000
O        O    0.81480000  0.15830000  0.23230000  0.00000000
O        O    0.18520000  0.84170000  0.76770000  0.00000000
O        O    0.57400000  0.41750000  0.73230000  0.00000000
O        O    0.83490000  0.78630000  0.25580000  0.00000000
O        O    0.83490000  0.57910000  0.04860000  0.00000000
O        O    0.03050000  0.78630000  0.45140000  0.00000000
O        O    0.16510000  0.42090000  0.95140000  0.00000000
O        O    0.96950000  0.21370000  0.54860000  0.00000000
O        O    0.03050000  0.57910000  0.24420000  0.00000000
O        O    0.96950000  0.42090000  0.75580000  0.00000000
O        O    0.16510000  0.21370000  0.74420000  0.00000000
O        O    0.98540000  0.00880000  0.33160000  0.00000000
O        O    0.98540000  0.65380000  0.97660000  0.00000000
O        O    0.17720000  0.00880000  0.52340000  0.00000000
O        O    0.01460000  0.34620000  0.02340000  0.00000000
O        O    0.82280000  0.99120000  0.47660000  0.00000000
O        O    0.17720000  0.65380000  0.16840000  0.00000000
O        O    0.82280000  0.34620000  0.83160000  0.00000000
O        O    0.01460000  0.99120000  0.66840000  0.00000000
O        O    0.76750000  0.88820000  0.21930000  0.00000000
O        O    0.76750000  0.54820000  0.87930000  0.00000000
O        O    0.16890000  0.88820000  0.62070000  0.00000000
O        O    0.23250000  0.45180000  0.12070000  0.00000000
O        O    0.83110000  0.11180000  0.37930000  0.00000000
O        O    0.16890000  0.54820000  0.28070000  0.00000000
O        O    0.83110000  0.45180000  0.71930000  0.00000000
O        O    0.23250000  0.11180000  0.78070000  0.00000000
O        O    0.78980000  0.84520000  0.36560000  0.00000000
O        O    0.78980000  0.42420000  0.94460000  0.00000000
O        O    0.97960000  0.84520000  0.55540000  0.00000000
O        O    0.21020000  0.57580000  0.05540000  0.00000000
O        O    0.02040000  0.15480000  0.44460000  0.00000000
O        O    0.97960000  0.42420000  0.13440000  0.00000000
O        O    0.02040000  0.57580000  0.86560000  0.00000000
O        O    0.21020000  0.15480000  0.63440000  0.00000000
O        O    0.50000000  0.57450000  0.07450000  0.00000000
O        O    0.00000000  0.42550000  0.42550000  0.00000000
O        O    1.00000000  0.57450000  0.57450000  0.00000000
O        O    0.50000000  0.42550000  0.92550000  0.00000000
O        O    0.50000000  0.78750000  0.28750000  0.00000000
O        O    0.00000000  0.21250000  0.21250000  0.00000000
O        O    1.00000000  0.78750000  0.78750000  0.00000000
O        O    0.50000000  0.21250000  0.71250000  0.00000000
