data_BOG_SI

_cell_length_a  20.23600000
_cell_length_b  23.79800000
_cell_length_c  12.79800000
_cell_angle_alpha  90.00000000
_cell_angle_beta  90.00000000
_cell_angle_gamma  90.00000000


_symmetry_space_group_name_Hall ' P 1'
_symmetry_space_group_name_H-M  'P 1'
_symmetry_Int_Tables_number     1

loop_
_atom_site_label
_atom_site_type_symbol
_atom_site_fract_x
_atom_site_fract_y
_atom_site_fract_z
_atom_site_charge
Si       Si   0.18881000  0.68550000  0.32810000  2.05000000
Si       Si   0.68881000  0.31450000  0.82810000  2.05000000
Si       Si   0.31119000  0.18550000  0.82810000  2.05000000
Si       Si   0.31119000  0.68550000  0.17190000  2.05000000
Si       Si   0.18881000  0.31450000  0.67190000  2.05000000
Si       Si   0.81119000  0.68550000  0.32810000  2.05000000
Si       Si   0.81119000  0.81450000  0.32810000  2.05000000
Si       Si   0.68881000  0.81450000  0.17190000  2.05000000
Si       Si   0.68881000  0.68550000  0.17190000  2.05000000
Si       Si   0.18881000  0.18550000  0.67190000  2.05000000
Si       Si   0.68881000  0.18550000  0.82810000  2.05000000
Si       Si   0.31119000  0.31450000  0.82810000  2.05000000
Si       Si   0.18881000  0.81450000  0.32810000  2.05000000
Si       Si   0.31119000  0.81450000  0.17190000  2.05000000
Si       Si   0.81119000  0.31450000  0.67190000  2.05000000
Si       Si   0.81119000  0.18550000  0.67190000  2.05000000
Si       Si   0.19006000  0.52407000  0.67030000  2.05000000
Si       Si   0.69006000  0.47593000  0.17030000  2.05000000
Si       Si   0.30994000  0.02407000  0.17030000  2.05000000
Si       Si   0.30994000  0.52407000  0.82970000  2.05000000
Si       Si   0.19006000  0.47593000  0.32970000  2.05000000
Si       Si   0.80994000  0.52407000  0.67030000  2.05000000
Si       Si   0.80994000  0.97593000  0.67030000  2.05000000
Si       Si   0.69006000  0.97593000  0.82970000  2.05000000
Si       Si   0.69006000  0.52407000  0.82970000  2.05000000
Si       Si   0.19006000  0.02407000  0.32970000  2.05000000
Si       Si   0.69006000  0.02407000  0.17030000  2.05000000
Si       Si   0.30994000  0.47593000  0.17030000  2.05000000
Si       Si   0.19006000  0.97593000  0.67030000  2.05000000
Si       Si   0.30994000  0.97593000  0.82970000  2.05000000
Si       Si   0.80994000  0.47593000  0.32970000  2.05000000
Si       Si   0.80994000  0.02407000  0.32970000  2.05000000
Si       Si   0.07689000  0.68517000  0.16430000  2.05000000
Si       Si   0.57689000  0.31483000  0.66430000  2.05000000
Si       Si   0.42311000  0.18517000  0.66430000  2.05000000
Si       Si   0.42311000  0.68517000  0.33570000  2.05000000
Si       Si   0.07689000  0.31483000  0.83570000  2.05000000
Si       Si   0.92311000  0.68517000  0.16430000  2.05000000
Si       Si   0.92311000  0.81483000  0.16430000  2.05000000
Si       Si   0.57689000  0.81483000  0.33570000  2.05000000
Si       Si   0.57689000  0.68517000  0.33570000  2.05000000
Si       Si   0.07689000  0.18517000  0.83570000  2.05000000
Si       Si   0.57689000  0.18517000  0.66430000  2.05000000
Si       Si   0.42311000  0.31483000  0.66430000  2.05000000
Si       Si   0.07689000  0.81483000  0.16430000  2.05000000
Si       Si   0.42311000  0.81483000  0.33570000  2.05000000
Si       Si   0.92311000  0.31483000  0.83570000  2.05000000
Si       Si   0.92311000  0.18517000  0.83570000  2.05000000
Si       Si   0.07768000  0.52210000  0.83570000  2.05000000
Si       Si   0.57768000  0.47790000  0.33570000  2.05000000
Si       Si   0.42232000  0.02210000  0.33570000  2.05000000
Si       Si   0.42232000  0.52210000  0.66430000  2.05000000
Si       Si   0.07768000  0.47790000  0.16430000  2.05000000
Si       Si   0.92232000  0.52210000  0.83570000  2.05000000
Si       Si   0.92232000  0.97790000  0.83570000  2.05000000
Si       Si   0.57768000  0.97790000  0.66430000  2.05000000
Si       Si   0.57768000  0.52210000  0.66430000  2.05000000
Si       Si   0.07768000  0.02210000  0.16430000  2.05000000
Si       Si   0.57768000  0.02210000  0.33570000  2.05000000
Si       Si   0.42232000  0.47790000  0.33570000  2.05000000
Si       Si   0.07768000  0.97790000  0.83570000  2.05000000
Si       Si   0.42232000  0.97790000  0.66430000  2.05000000
Si       Si   0.92232000  0.47790000  0.16430000  2.05000000
Si       Si   0.92232000  0.02210000  0.16430000  2.05000000
Si       Si   0.22108000  0.58300000  0.46220000  2.05000000
Si       Si   0.72108000  0.41700000  0.96220000  2.05000000
Si       Si   0.27892000  0.08300000  0.96220000  2.05000000
Si       Si   0.27892000  0.58300000  0.03780000  2.05000000
Si       Si   0.22108000  0.41700000  0.53780000  2.05000000
Si       Si   0.77892000  0.58300000  0.46220000  2.05000000
Si       Si   0.77892000  0.91700000  0.46220000  2.05000000
Si       Si   0.72108000  0.91700000  0.03780000  2.05000000
Si       Si   0.72108000  0.58300000  0.03780000  2.05000000
Si       Si   0.22108000  0.08300000  0.53780000  2.05000000
Si       Si   0.72108000  0.08300000  0.96220000  2.05000000
Si       Si   0.27892000  0.41700000  0.96220000  2.05000000
Si       Si   0.22108000  0.91700000  0.46220000  2.05000000
Si       Si   0.27892000  0.91700000  0.03780000  2.05000000
Si       Si   0.77892000  0.41700000  0.53780000  2.05000000
Si       Si   0.77892000  0.08300000  0.53780000  2.05000000
Si       Si   0.12270000  0.58371000  0.03440000  2.05000000
Si       Si   0.62270000  0.41629000  0.53440000  2.05000000
Si       Si   0.37730000  0.08371000  0.53440000  2.05000000
Si       Si   0.37730000  0.58371000  0.46560000  2.05000000
Si       Si   0.12270000  0.41629000  0.96560000  2.05000000
Si       Si   0.87730000  0.58371000  0.03440000  2.05000000
Si       Si   0.87730000  0.91629000  0.03440000  2.05000000
Si       Si   0.62270000  0.91629000  0.46560000  2.05000000
Si       Si   0.62270000  0.58371000  0.46560000  2.05000000
Si       Si   0.12270000  0.08371000  0.96560000  2.05000000
Si       Si   0.62270000  0.08371000  0.53440000  2.05000000
Si       Si   0.37730000  0.41629000  0.53440000  2.05000000
Si       Si   0.12270000  0.91629000  0.03440000  2.05000000
Si       Si   0.37730000  0.91629000  0.46560000  2.05000000
Si       Si   0.87730000  0.41629000  0.96560000  2.05000000
Si       Si   0.87730000  0.08371000  0.96560000  2.05000000
O        O    0.81180000  0.75000000  0.37090000 -1.02500000
O        O    0.68820000  0.75000000  0.12910000 -1.02500000
O        O    0.18820000  0.25000000  0.62910000 -1.02500000
O        O    0.68820000  0.25000000  0.87090000 -1.02500000
O        O    0.31180000  0.25000000  0.87090000 -1.02500000
O        O    0.18820000  0.75000000  0.37090000 -1.02500000
O        O    0.31180000  0.75000000  0.12910000 -1.02500000
O        O    0.81180000  0.25000000  0.62910000 -1.02500000
O        O    0.11940000  0.67070000  0.26780000 -1.02500000
O        O    0.61940000  0.32930000  0.76780000 -1.02500000
O        O    0.38060000  0.17070000  0.76780000 -1.02500000
O        O    0.38060000  0.67070000  0.23220000 -1.02500000
O        O    0.11940000  0.32930000  0.73220000 -1.02500000
O        O    0.88060000  0.67070000  0.26780000 -1.02500000
O        O    0.88060000  0.82930000  0.26780000 -1.02500000
O        O    0.61940000  0.82930000  0.23220000 -1.02500000
O        O    0.61940000  0.67070000  0.23220000 -1.02500000
O        O    0.11940000  0.17070000  0.73220000 -1.02500000
O        O    0.61940000  0.17070000  0.76780000 -1.02500000
O        O    0.38060000  0.32930000  0.76780000 -1.02500000
O        O    0.11940000  0.82930000  0.26780000 -1.02500000
O        O    0.38060000  0.82930000  0.23220000 -1.02500000
O        O    0.88060000  0.32930000  0.73220000 -1.02500000
O        O    0.88060000  0.17070000  0.73220000 -1.02500000
O        O    0.19500000  0.64560000  0.43210000 -1.02500000
O        O    0.69500000  0.35440000  0.93210000 -1.02500000
O        O    0.30500000  0.14560000  0.93210000 -1.02500000
O        O    0.30500000  0.64560000  0.06790000 -1.02500000
O        O    0.19500000  0.35440000  0.56790000 -1.02500000
O        O    0.80500000  0.64560000  0.43210000 -1.02500000
O        O    0.80500000  0.85440000  0.43210000 -1.02500000
O        O    0.69500000  0.85440000  0.06790000 -1.02500000
O        O    0.69500000  0.64560000  0.06790000 -1.02500000
O        O    0.19500000  0.14560000  0.56790000 -1.02500000
O        O    0.69500000  0.14560000  0.93210000 -1.02500000
O        O    0.30500000  0.35440000  0.93210000 -1.02500000
O        O    0.19500000  0.85440000  0.43210000 -1.02500000
O        O    0.30500000  0.85440000  0.06790000 -1.02500000
O        O    0.80500000  0.35440000  0.56790000 -1.02500000
O        O    0.80500000  0.14560000  0.56790000 -1.02500000
O        O    0.19000000  0.57020000  0.57640000 -1.02500000
O        O    0.69000000  0.42980000  0.07640000 -1.02500000
O        O    0.31000000  0.07020000  0.07640000 -1.02500000
O        O    0.31000000  0.57020000  0.92360000 -1.02500000
O        O    0.19000000  0.42980000  0.42360000 -1.02500000
O        O    0.81000000  0.57020000  0.57640000 -1.02500000
O        O    0.81000000  0.92980000  0.57640000 -1.02500000
O        O    0.69000000  0.92980000  0.92360000 -1.02500000
O        O    0.69000000  0.57020000  0.92360000 -1.02500000
O        O    0.19000000  0.07020000  0.42360000 -1.02500000
O        O    0.69000000  0.07020000  0.07640000 -1.02500000
O        O    0.31000000  0.42980000  0.07640000 -1.02500000
O        O    0.19000000  0.92980000  0.57640000 -1.02500000
O        O    0.31000000  0.92980000  0.92360000 -1.02500000
O        O    0.81000000  0.42980000  0.42360000 -1.02500000
O        O    0.81000000  0.07020000  0.42360000 -1.02500000
O        O    0.11940000  0.53190000  0.72780000 -1.02500000
O        O    0.61940000  0.46810000  0.22780000 -1.02500000
O        O    0.38060000  0.03190000  0.22780000 -1.02500000
O        O    0.38060000  0.53190000  0.77220000 -1.02500000
O        O    0.11940000  0.46810000  0.27220000 -1.02500000
O        O    0.88060000  0.53190000  0.72780000 -1.02500000
O        O    0.88060000  0.96810000  0.72780000 -1.02500000
O        O    0.61940000  0.96810000  0.77220000 -1.02500000
O        O    0.61940000  0.53190000  0.77220000 -1.02500000
O        O    0.11940000  0.03190000  0.27220000 -1.02500000
O        O    0.61940000  0.03190000  0.22780000 -1.02500000
O        O    0.38060000  0.46810000  0.22780000 -1.02500000
O        O    0.11940000  0.96810000  0.72780000 -1.02500000
O        O    0.38060000  0.96810000  0.77220000 -1.02500000
O        O    0.88060000  0.46810000  0.27220000 -1.02500000
O        O    0.88060000  0.03190000  0.27220000 -1.02500000
O        O    0.91070000  0.75000000  0.12690000 -1.02500000
O        O    0.58930000  0.75000000  0.37310000 -1.02500000
O        O    0.08930000  0.25000000  0.87310000 -1.02500000
O        O    0.58930000  0.25000000  0.62690000 -1.02500000
O        O    0.41070000  0.25000000  0.62690000 -1.02500000
O        O    0.08930000  0.75000000  0.12690000 -1.02500000
O        O    0.41070000  0.75000000  0.37310000 -1.02500000
O        O    0.91070000  0.25000000  0.87310000 -1.02500000
O        O    0.00000000  0.67380000  0.19570000 -1.02500000
O        O    0.50000000  0.67380000  0.30430000 -1.02500000
O        O    0.50000000  0.17380000  0.69570000 -1.02500000
O        O    0.50000000  0.32620000  0.69570000 -1.02500000
O        O    0.00000000  0.82620000  0.19570000 -1.02500000
O        O    0.50000000  0.82620000  0.30430000 -1.02500000
O        O    0.00000000  0.32620000  0.80430000 -1.02500000
O        O    0.00000000  0.17380000  0.80430000 -1.02500000
O        O    0.00000000  0.52630000  0.80320000 -1.02500000
O        O    0.50000000  0.52630000  0.69680000 -1.02500000
O        O    0.50000000  0.02630000  0.30320000 -1.02500000
O        O    0.50000000  0.47370000  0.30320000 -1.02500000
O        O    0.00000000  0.97370000  0.80320000 -1.02500000
O        O    0.50000000  0.97370000  0.69680000 -1.02500000
O        O    0.00000000  0.47370000  0.19680000 -1.02500000
O        O    0.00000000  0.02630000  0.19680000 -1.02500000
O        O    0.19440000  0.53790000  0.37960000 -1.02500000
O        O    0.69440000  0.46210000  0.87960000 -1.02500000
O        O    0.30560000  0.03790000  0.87960000 -1.02500000
O        O    0.30560000  0.53790000  0.12040000 -1.02500000
O        O    0.19440000  0.46210000  0.62040000 -1.02500000
O        O    0.80560000  0.53790000  0.37960000 -1.02500000
O        O    0.80560000  0.96210000  0.37960000 -1.02500000
O        O    0.69440000  0.96210000  0.12040000 -1.02500000
O        O    0.69440000  0.53790000  0.12040000 -1.02500000
O        O    0.19440000  0.03790000  0.62040000 -1.02500000
O        O    0.69440000  0.03790000  0.87960000 -1.02500000
O        O    0.30560000  0.46210000  0.87960000 -1.02500000
O        O    0.19440000  0.96210000  0.37960000 -1.02500000
O        O    0.30560000  0.96210000  0.12040000 -1.02500000
O        O    0.80560000  0.46210000  0.62040000 -1.02500000
O        O    0.80560000  0.03790000  0.62040000 -1.02500000
O        O    0.09780000  0.64640000  0.06730000 -1.02500000
O        O    0.59780000  0.35360000  0.56730000 -1.02500000
O        O    0.40220000  0.14640000  0.56730000 -1.02500000
O        O    0.40220000  0.64640000  0.43270000 -1.02500000
O        O    0.09780000  0.35360000  0.93270000 -1.02500000
O        O    0.90220000  0.64640000  0.06730000 -1.02500000
O        O    0.90220000  0.85360000  0.06730000 -1.02500000
O        O    0.59780000  0.85360000  0.43270000 -1.02500000
O        O    0.59780000  0.64640000  0.43270000 -1.02500000
O        O    0.09780000  0.14640000  0.93270000 -1.02500000
O        O    0.59780000  0.14640000  0.56730000 -1.02500000
O        O    0.40220000  0.35360000  0.56730000 -1.02500000
O        O    0.09780000  0.85360000  0.06730000 -1.02500000
O        O    0.40220000  0.85360000  0.43270000 -1.02500000
O        O    0.90220000  0.35360000  0.93270000 -1.02500000
O        O    0.90220000  0.14640000  0.93270000 -1.02500000
O        O    0.09590000  0.57250000  0.91870000 -1.02500000
O        O    0.59590000  0.42750000  0.41870000 -1.02500000
O        O    0.40410000  0.07250000  0.41870000 -1.02500000
O        O    0.40410000  0.57250000  0.58130000 -1.02500000
O        O    0.09590000  0.42750000  0.08130000 -1.02500000
O        O    0.90410000  0.57250000  0.91870000 -1.02500000
O        O    0.90410000  0.92750000  0.91870000 -1.02500000
O        O    0.59590000  0.92750000  0.58130000 -1.02500000
O        O    0.59590000  0.57250000  0.58130000 -1.02500000
O        O    0.09590000  0.07250000  0.08130000 -1.02500000
O        O    0.59590000  0.07250000  0.41870000 -1.02500000
O        O    0.40410000  0.42750000  0.41870000 -1.02500000
O        O    0.09590000  0.92750000  0.91870000 -1.02500000
O        O    0.40410000  0.92750000  0.58130000 -1.02500000
O        O    0.90410000  0.42750000  0.08130000 -1.02500000
O        O    0.90410000  0.07250000  0.08130000 -1.02500000
O        O    0.20070000  0.58000000  0.03180000 -1.02500000
O        O    0.70070000  0.42000000  0.53180000 -1.02500000
O        O    0.29930000  0.08000000  0.53180000 -1.02500000
O        O    0.29930000  0.58000000  0.46820000 -1.02500000
O        O    0.20070000  0.42000000  0.96820000 -1.02500000
O        O    0.79930000  0.58000000  0.03180000 -1.02500000
O        O    0.79930000  0.92000000  0.03180000 -1.02500000
O        O    0.70070000  0.92000000  0.46820000 -1.02500000
O        O    0.70070000  0.58000000  0.46820000 -1.02500000
O        O    0.20070000  0.08000000  0.96820000 -1.02500000
O        O    0.70070000  0.08000000  0.53180000 -1.02500000
O        O    0.29930000  0.42000000  0.53180000 -1.02500000
O        O    0.20070000  0.92000000  0.03180000 -1.02500000
O        O    0.29930000  0.92000000  0.46820000 -1.02500000
O        O    0.79930000  0.42000000  0.96820000 -1.02500000
O        O    0.79930000  0.08000000  0.96820000 -1.02500000
O        O    0.09490000  0.53950000  0.11530000 -1.02500000
O        O    0.59490000  0.46050000  0.61530000 -1.02500000
O        O    0.40510000  0.03950000  0.61530000 -1.02500000
O        O    0.40510000  0.53950000  0.38470000 -1.02500000
O        O    0.09490000  0.46050000  0.88470000 -1.02500000
O        O    0.90510000  0.53950000  0.11530000 -1.02500000
O        O    0.90510000  0.96050000  0.11530000 -1.02500000
O        O    0.59490000  0.96050000  0.38470000 -1.02500000
O        O    0.59490000  0.53950000  0.38470000 -1.02500000
O        O    0.09490000  0.03950000  0.88470000 -1.02500000
O        O    0.59490000  0.03950000  0.61530000 -1.02500000
O        O    0.40510000  0.46050000  0.61530000 -1.02500000
O        O    0.09490000  0.96050000  0.11530000 -1.02500000
O        O    0.40510000  0.96050000  0.38470000 -1.02500000
O        O    0.90510000  0.46050000  0.88470000 -1.02500000
O        O    0.90510000  0.03950000  0.88470000 -1.02500000
O        O    0.25000000  0.67550000  0.25000000 -1.02500000
O        O    0.75000000  0.82450000  0.25000000 -1.02500000
O        O    0.75000000  0.67550000  0.25000000 -1.02500000
O        O    0.25000000  0.17550000  0.75000000 -1.02500000
O        O    0.25000000  0.32450000  0.75000000 -1.02500000
O        O    0.25000000  0.82450000  0.25000000 -1.02500000
O        O    0.75000000  0.32450000  0.75000000 -1.02500000
O        O    0.75000000  0.17550000  0.75000000 -1.02500000
O        O    0.25000000  0.46250000  0.25000000 -1.02500000
O        O    0.75000000  0.03750000  0.25000000 -1.02500000
O        O    0.75000000  0.46250000  0.25000000 -1.02500000
O        O    0.25000000  0.96250000  0.75000000 -1.02500000
O        O    0.25000000  0.53750000  0.75000000 -1.02500000
O        O    0.25000000  0.03750000  0.25000000 -1.02500000
O        O    0.75000000  0.53750000  0.75000000 -1.02500000
O        O    0.75000000  0.96250000  0.75000000 -1.02500000
