data_CFI

_cell_length_a  14.68724340
_cell_length_b  14.68724340
_cell_length_c  14.68724340
_cell_angle_alpha  160.31613366
_cell_angle_beta  124.42146806
_cell_angle_gamma  59.54632478


_symmetry_space_group_name_Hall ' P 1'
_symmetry_space_group_name_H-M  'P 1'
_symmetry_Int_Tables_number     1

loop_
_atom_site_label
_atom_site_type_symbol
_atom_site_fract_x
_atom_site_fract_y
_atom_site_fract_z
_atom_site_charge
Si       Si   0.35230000  0.21830000  0.13400000  0.00000000
Si       Si   0.64770000  0.78170000  0.86600000  0.00000000
Si       Si   0.58430000  0.21830000  0.36600000  0.00000000
Si       Si   0.41570000  0.78170000  0.63400000  0.00000000
Si       Si   0.22120000  0.47120000  0.75000000  0.00000000
Si       Si   0.77880000  0.52880000  0.25000000  0.00000000
Si       Si   0.02930000  0.56130000  0.46800000  0.00000000
Si       Si   0.97070000  0.43870000  0.53200000  0.00000000
Si       Si   0.59330000  0.56130000  0.03200000  0.00000000
Si       Si   0.40670000  0.43870000  0.96800000  0.00000000
Si       Si   0.28230000  0.03230000  0.25000000  0.00000000
Si       Si   0.71770000  0.96770000  0.75000000  0.00000000
Si       Si   0.15850000  0.10210000  0.05640000  0.00000000
Si       Si   0.84150000  0.89790000  0.94360000  0.00000000
Si       Si   0.54570000  0.10210000  0.44360000  0.00000000
Si       Si   0.45430000  0.89790000  0.55640000  0.00000000
O        O    0.44880000  0.19880000  0.25000000  0.00000000
O        O    0.55120000  0.80120000  0.75000000  0.00000000
O        O    0.24100000  0.07630000  0.16470000  0.00000000
O        O    0.75900000  0.92370000  0.83530000  0.00000000
O        O    0.41160000  0.07630000  0.33530000  0.00000000
O        O    0.58840000  0.92370000  0.66470000  0.00000000
O        O    0.26910000  0.69150000  0.92240000  0.00000000
O        O    0.73090000  0.65330000  0.42240000  0.00000000
O        O    0.26910000  0.34670000  0.57760000  0.00000000
O        O    0.73090000  0.30850000  0.07760000  0.00000000
O        O    0.63030000  0.50000000  0.63030000  0.00000000
O        O    0.63030000  0.00000000  0.13030000  0.00000000
O        O    0.36970000  0.00000000  0.86970000  0.00000000
O        O    0.36970000  0.50000000  0.36970000  0.00000000
O        O    0.21950000  0.15910000  0.06040000  0.00000000
O        O    0.78050000  0.84090000  0.93960000  0.00000000
O        O    0.59870000  0.15910000  0.43960000  0.00000000
O        O    0.40130000  0.84090000  0.56040000  0.00000000
O        O    0.00000000  0.50000000  0.50000000  0.00000000
O        O    0.50000000  0.50000000  0.00000000  0.00000000
O        O    0.09880000  0.44010000  0.65870000  0.00000000
O        O    0.90120000  0.55990000  0.34130000  0.00000000
O        O    0.28140000  0.44010000  0.84130000  0.00000000
O        O    0.71860000  0.55990000  0.15870000  0.00000000
O        O    0.59750000  0.88610000  0.31660000  0.00000000
O        O    0.59750000  0.28090000  0.71140000  0.00000000
O        O    0.06950000  0.88610000  0.78860000  0.00000000
O        O    0.40250000  0.71910000  0.28860000  0.00000000
O        O    0.93050000  0.11390000  0.21140000  0.00000000
O        O    0.06950000  0.28090000  0.18340000  0.00000000
O        O    0.93050000  0.71910000  0.81660000  0.00000000
O        O    0.40250000  0.11390000  0.68340000  0.00000000
