data_CFI

_cell_length_a  13.69500000
_cell_length_b  5.02100000
_cell_length_c  25.49700000
_cell_angle_alpha  90.00000000
_cell_angle_beta  90.00000000
_cell_angle_gamma  90.00000000


_symmetry_space_group_name_Hall ' P 1'
_symmetry_space_group_name_H-M  'P 1'
_symmetry_Int_Tables_number     1

loop_
_atom_site_label
_atom_site_type_symbol
_atom_site_fract_x
_atom_site_fract_y
_atom_site_fract_z
_atom_site_charge
Si       Si   0.88400000  0.75000000  0.96830000  0.00000000
Si       Si   0.61600000  0.75000000  0.53170000  0.00000000
Si       Si   0.11600000  0.25000000  0.03170000  0.00000000
Si       Si   0.61600000  0.25000000  0.46830000  0.00000000
Si       Si   0.38400000  0.25000000  0.46830000  0.00000000
Si       Si   0.11600000  0.75000000  0.96830000  0.00000000
Si       Si   0.38400000  0.75000000  0.53170000  0.00000000
Si       Si   0.88400000  0.25000000  0.03170000  0.00000000
Si       Si   0.50000000  0.75000000  0.22120000  0.00000000
Si       Si   0.00000000  0.25000000  0.72120000  0.00000000
Si       Si   0.50000000  0.25000000  0.77880000  0.00000000
Si       Si   0.00000000  0.75000000  0.27880000  0.00000000
Si       Si   0.71800000  0.25000000  0.81130000  0.00000000
Si       Si   0.78200000  0.25000000  0.68870000  0.00000000
Si       Si   0.28200000  0.75000000  0.18870000  0.00000000
Si       Si   0.78200000  0.75000000  0.31130000  0.00000000
Si       Si   0.21800000  0.75000000  0.31130000  0.00000000
Si       Si   0.28200000  0.25000000  0.81130000  0.00000000
Si       Si   0.21800000  0.25000000  0.68870000  0.00000000
Si       Si   0.71800000  0.75000000  0.18870000  0.00000000
Si       Si   0.50000000  0.25000000  0.28230000  0.00000000
Si       Si   0.00000000  0.75000000  0.78230000  0.00000000
Si       Si   0.50000000  0.75000000  0.71770000  0.00000000
Si       Si   0.00000000  0.25000000  0.21770000  0.00000000
Si       Si   0.80640000  0.75000000  0.85210000  0.00000000
Si       Si   0.69360000  0.75000000  0.64790000  0.00000000
Si       Si   0.19360000  0.25000000  0.14790000  0.00000000
Si       Si   0.69360000  0.25000000  0.35210000  0.00000000
Si       Si   0.30640000  0.25000000  0.35210000  0.00000000
Si       Si   0.19360000  0.75000000  0.85210000  0.00000000
Si       Si   0.30640000  0.75000000  0.64790000  0.00000000
Si       Si   0.80640000  0.25000000  0.14790000  0.00000000
O        O    0.50000000  0.25000000  0.44880000  0.00000000
O        O    0.00000000  0.75000000  0.94880000  0.00000000
O        O    0.50000000  0.75000000  0.55120000  0.00000000
O        O    0.00000000  0.25000000  0.05120000  0.00000000
O        O    0.91470000  0.75000000  0.82630000  0.00000000
O        O    0.58530000  0.75000000  0.67370000  0.00000000
O        O    0.08530000  0.25000000  0.17370000  0.00000000
O        O    0.58530000  0.25000000  0.32630000  0.00000000
O        O    0.41470000  0.25000000  0.32630000  0.00000000
O        O    0.08530000  0.75000000  0.82630000  0.00000000
O        O    0.41470000  0.75000000  0.67370000  0.00000000
O        O    0.91470000  0.25000000  0.17370000  0.00000000
O        O    0.00000000  0.07760000  0.76910000  0.00000000
O        O    0.50000000  0.07760000  0.73090000  0.00000000
O        O    0.50000000  0.57760000  0.26910000  0.00000000
O        O    0.50000000  0.92240000  0.26910000  0.00000000
O        O    0.00000000  0.42240000  0.76910000  0.00000000
O        O    0.50000000  0.42240000  0.73090000  0.00000000
O        O    0.00000000  0.92240000  0.23090000  0.00000000
O        O    0.00000000  0.57760000  0.23090000  0.00000000
O        O    0.13030000  0.50000000  0.00000000  0.00000000
O        O    0.63030000  0.50000000  0.50000000  0.00000000
O        O    0.63030000  0.00000000  0.50000000  0.00000000
O        O    0.36970000  0.50000000  0.50000000  0.00000000
O        O    0.13030000  0.00000000  0.00000000  0.00000000
O        O    0.36970000  0.00000000  0.50000000  0.00000000
O        O    0.86970000  0.50000000  0.00000000  0.00000000
O        O    0.86970000  0.00000000  0.00000000  0.00000000
O        O    0.81040000  0.75000000  0.90910000  0.00000000
O        O    0.68960000  0.75000000  0.59090000  0.00000000
O        O    0.18960000  0.25000000  0.09090000  0.00000000
O        O    0.68960000  0.25000000  0.40910000  0.00000000
O        O    0.31040000  0.25000000  0.40910000  0.00000000
O        O    0.18960000  0.75000000  0.90910000  0.00000000
O        O    0.31040000  0.75000000  0.59090000  0.00000000
O        O    0.81040000  0.25000000  0.09090000  0.00000000
O        O    0.75000000  0.25000000  0.75000000  0.00000000
O        O    0.25000000  0.75000000  0.25000000  0.00000000
O        O    0.25000000  0.25000000  0.75000000  0.00000000
O        O    0.75000000  0.75000000  0.25000000  0.00000000
O        O    0.90870000  0.25000000  0.69010000  0.00000000
O        O    0.59130000  0.25000000  0.80990000  0.00000000
O        O    0.09130000  0.75000000  0.30990000  0.00000000
O        O    0.59130000  0.75000000  0.19010000  0.00000000
O        O    0.40870000  0.75000000  0.19010000  0.00000000
O        O    0.09130000  0.25000000  0.69010000  0.00000000
O        O    0.40870000  0.25000000  0.80990000  0.00000000
O        O    0.90870000  0.75000000  0.30990000  0.00000000
O        O    0.26400000  0.94740000  0.83350000  0.00000000
O        O    0.76400000  0.05260000  0.33350000  0.00000000
O        O    0.23600000  0.44740000  0.33350000  0.00000000
O        O    0.23600000  0.94740000  0.66650000  0.00000000
O        O    0.26400000  0.05260000  0.16650000  0.00000000
O        O    0.73600000  0.94740000  0.83350000  0.00000000
O        O    0.73600000  0.55260000  0.83350000  0.00000000
O        O    0.76400000  0.55260000  0.66650000  0.00000000
O        O    0.76400000  0.94740000  0.66650000  0.00000000
O        O    0.26400000  0.44740000  0.16650000  0.00000000
O        O    0.76400000  0.44740000  0.33350000  0.00000000
O        O    0.23600000  0.05260000  0.33350000  0.00000000
O        O    0.26400000  0.55260000  0.83350000  0.00000000
O        O    0.23600000  0.55260000  0.66650000  0.00000000
O        O    0.73600000  0.05260000  0.16650000  0.00000000
O        O    0.73600000  0.44740000  0.16650000  0.00000000
