data_CHA_SI

_cell_length_a  9.45900000
_cell_length_b  9.45900000
_cell_length_c  9.45900000
_cell_angle_alpha  94.07000000
_cell_angle_beta  94.07000000
_cell_angle_gamma  94.07000000


_symmetry_space_group_name_Hall ' P 1'
_symmetry_space_group_name_H-M  'P 1'
_symmetry_Int_Tables_number     1

loop_
_atom_site_label
_atom_site_type_symbol
_atom_site_fract_x
_atom_site_fract_y
_atom_site_fract_z
_atom_site_charge
Si       Si   0.10330000  0.33310000  0.87430000  0.00000000
Si       Si   0.12570000  0.89670000  0.66690000  0.00000000
Si       Si   0.66690000  0.89670000  0.12570000  0.00000000
Si       Si   0.10330000  0.87430000  0.33310000  0.00000000
Si       Si   0.87430000  0.33310000  0.10330000  0.00000000
Si       Si   0.33310000  0.87430000  0.10330000  0.00000000
Si       Si   0.12570000  0.66690000  0.89670000  0.00000000
Si       Si   0.33310000  0.10330000  0.87430000  0.00000000
Si       Si   0.66690000  0.12570000  0.89670000  0.00000000
Si       Si   0.87430000  0.10330000  0.33310000  0.00000000
Si       Si   0.89670000  0.12570000  0.66690000  0.00000000
Si       Si   0.89670000  0.66690000  0.12570000  0.00000000
O        O    0.00000000  0.73350000  0.26650000  0.00000000
O        O    0.26650000  0.73350000  1.00000000  0.00000000
O        O    0.26650000  1.00000000  0.73350000  0.00000000
O        O    0.73350000  1.00000000  0.26650000  0.00000000
O        O    1.00000000  0.26650000  0.73350000  0.00000000
O        O    0.73350000  0.26650000  1.00000000  0.00000000
O        O    0.15060000  0.84940000  0.50000000  0.00000000
O        O    0.50000000  0.84940000  0.15060000  0.00000000
O        O    0.15060000  0.50000000  0.84940000  0.00000000
O        O    0.84940000  0.15060000  0.50000000  0.00000000
O        O    0.84940000  0.50000000  0.15060000  0.00000000
O        O    0.50000000  0.15060000  0.84940000  0.00000000
O        O    0.25030000  0.89300000  0.25030000  0.00000000
O        O    0.10700000  0.74970000  0.74970000  0.00000000
O        O    0.25030000  0.25030000  0.89300000  0.00000000
O        O    0.89300000  0.25030000  0.25030000  0.00000000
O        O    0.74970000  0.10700000  0.74970000  0.00000000
O        O    0.74970000  0.74970000  0.10700000  0.00000000
O        O    0.02040000  0.31930000  0.02040000  0.00000000
O        O    0.68070000  0.97960000  0.97960000  0.00000000
O        O    0.02040000  0.02040000  0.31930000  0.00000000
O        O    0.31930000  0.02040000  0.02040000  0.00000000
O        O    0.97960000  0.68070000  0.97960000  0.00000000
O        O    0.97960000  0.97960000  0.68070000  0.00000000
