data_CHA_SI

_cell_length_a  13.84362816
_cell_length_b  13.84362816
_cell_length_c  15.17616577
_cell_angle_alpha  90.00000000
_cell_angle_beta  90.00000000
_cell_angle_gamma  120.00000000


_symmetry_space_group_name_Hall ' P 1'
_symmetry_space_group_name_H-M  'P 1'
_symmetry_Int_Tables_number     1

loop_
_atom_site_label
_atom_site_type_symbol
_atom_site_fract_x
_atom_site_fract_y
_atom_site_fract_z
_atom_site_charge
Si       Si   0.89593333  0.33306667  0.22976667  0.00000000
Si       Si   0.22953333  0.22926667  0.10356667  0.00000000
Si       Si   0.77073333  0.77046667  0.10356667  0.00000000
Si       Si   0.10406667  0.43713333  0.77023333  0.00000000
Si       Si   0.43713333  0.33306667  0.22976667  0.00000000
Si       Si   0.66693333  0.10406667  0.22976667  0.00000000
Si       Si   0.33360000  0.89620000  0.56310000  0.00000000
Si       Si   0.89620000  0.56260000  0.43690000  0.00000000
Si       Si   0.33360000  0.43740000  0.56310000  0.00000000
Si       Si   0.43740000  0.10380000  0.43690000  0.00000000
Si       Si   0.10380000  0.66640000  0.56310000  0.00000000
Si       Si   0.66640000  0.56260000  0.43690000  0.00000000
Si       Si   0.00026667  0.77073333  0.89643333  0.00000000
Si       Si   0.89593333  0.56286667  0.22976667  0.00000000
Si       Si   0.99973333  0.22926667  0.10356667  0.00000000
Si       Si   0.66640000  0.10380000  0.43690000  0.00000000
Si       Si   0.66693333  0.56286667  0.22976667  0.00000000
Si       Si   0.33306667  0.43713333  0.77023333  0.00000000
Si       Si   0.43713333  0.10406667  0.22976667  0.00000000
Si       Si   0.89620000  0.33360000  0.43690000  0.00000000
Si       Si   0.56260000  0.66640000  0.56310000  0.00000000
Si       Si   0.10406667  0.66693333  0.77023333  0.00000000
Si       Si   0.56286667  0.66693333  0.77023333  0.00000000
Si       Si   0.77046667  0.99973333  0.89643333  0.00000000
Si       Si   0.56286667  0.89593333  0.77023333  0.00000000
Si       Si   0.22953333  0.00026667  0.10356667  0.00000000
Si       Si   0.22926667  0.99973333  0.89643333  0.00000000
Si       Si   0.56260000  0.89620000  0.56310000  0.00000000
Si       Si   0.43740000  0.33360000  0.43690000  0.00000000
Si       Si   0.00026667  0.22953333  0.89643333  0.00000000
Si       Si   0.77046667  0.77073333  0.89643333  0.00000000
Si       Si   0.33306667  0.89593333  0.77023333  0.00000000
Si       Si   0.99973333  0.77046667  0.10356667  0.00000000
Si       Si   0.22926667  0.22953333  0.89643333  0.00000000
Si       Si   0.10380000  0.43740000  0.56310000  0.00000000
Si       Si   0.77073333  0.00026667  0.10356667  0.00000000
O        O    0.06683333  0.66666667  0.66666667  0.00000000
O        O    0.66666667  0.59983333  0.33333333  0.00000000
O        O    0.93316667  0.59983333  0.33333333  0.00000000
O        O    0.73350000  0.73350000  0.00000000  0.00000000
O        O    0.93316667  0.33333333  0.33333333  0.00000000
O        O    0.40016667  0.33333333  0.33333333  0.00000000
O        O    0.66666667  0.06683333  0.33333333  0.00000000
O        O    0.06683333  0.40016667  0.66666667  0.00000000
O        O    1.00000000  0.26650000  0.00000000  0.00000000
O        O    0.33333333  0.93316667  0.66666667  0.00000000
O        O    0.26650000  0.26650000  0.00000000  0.00000000
O        O    0.59983333  0.66666667  0.66666667  0.00000000
O        O    0.40016667  0.06683333  0.33333333  0.00000000
O        O    0.73350000  0.00000000  0.00000000  0.00000000
O        O    1.00000000  0.73350000  0.00000000  0.00000000
O        O    0.59983333  0.93316667  0.66666667  0.00000000
O        O    0.26650000  0.00000000  0.00000000  0.00000000
O        O    0.33333333  0.40016667  0.66666667  0.00000000
O        O    0.33333333  0.31726667  0.16666667  0.00000000
O        O    0.34940000  0.00000000  0.50000000  0.00000000
O        O    0.00000000  0.65060000  0.50000000  0.00000000
O        O    0.98393333  0.31726667  0.16666667  0.00000000
O        O    0.68273333  0.66666667  0.16666667  0.00000000
O        O    0.00000000  0.34940000  0.50000000  0.00000000
O        O    0.65060000  0.65060000  0.50000000  0.00000000
O        O    0.01606667  0.68273333  0.83333333  0.00000000
O        O    0.66666667  0.98393333  0.83333333  0.00000000
O        O    0.33333333  0.01606667  0.16666667  0.00000000
O        O    0.65060000  0.00000000  0.50000000  0.00000000
O        O    0.34940000  0.34940000  0.50000000  0.00000000
O        O    0.01606667  0.33333333  0.83333333  0.00000000
O        O    0.66666667  0.68273333  0.83333333  0.00000000
O        O    0.31726667  0.98393333  0.83333333  0.00000000
O        O    0.98393333  0.66666667  0.16666667  0.00000000
O        O    0.31726667  0.33333333  0.83333333  0.00000000
O        O    0.68273333  0.01606667  0.16666667  0.00000000
O        O    0.21423333  0.78576667  0.53546667  0.00000000
O        O    0.78576667  0.57153333  0.46453333  0.00000000
O        O    0.90486667  0.45243333  0.20213333  0.00000000
O        O    0.11910000  0.23820000  0.13120000  0.00000000
O        O    0.54756667  0.45243333  0.20213333  0.00000000
O        O    0.54756667  0.09513333  0.20213333  0.00000000
O        O    0.78576667  0.21423333  0.46453333  0.00000000
O        O    0.09513333  0.54756667  0.79786667  0.00000000
O        O    0.45243333  0.54756667  0.79786667  0.00000000
O        O    0.57153333  0.78576667  0.53546667  0.00000000
O        O    0.42846667  0.21423333  0.46453333  0.00000000
O        O    0.88090000  0.11910000  0.86880000  0.00000000
O        O    0.88090000  0.76180000  0.86880000  0.00000000
O        O    0.45243333  0.90486667  0.79786667  0.00000000
O        O    0.11910000  0.88090000  0.13120000  0.00000000
O        O    0.23820000  0.11910000  0.86880000  0.00000000
O        O    0.21423333  0.42846667  0.53546667  0.00000000
O        O    0.76180000  0.88090000  0.13120000  0.00000000
O        O    0.09963333  0.90036667  0.87996667  0.00000000
O        O    0.90036667  0.80073333  0.12003333  0.00000000
O        O    0.13406667  0.56703333  0.54663333  0.00000000
O        O    0.23370000  0.46740000  0.78670000  0.00000000
O        O    0.43296667  0.56703333  0.54663333  0.00000000
O        O    0.43296667  0.86593333  0.54663333  0.00000000
O        O    0.90036667  0.09963333  0.12003333  0.00000000
O        O    0.86593333  0.43296667  0.45336667  0.00000000
O        O    0.56703333  0.43296667  0.45336667  0.00000000
O        O    0.80073333  0.90036667  0.87996667  0.00000000
O        O    0.19926667  0.09963333  0.12003333  0.00000000
O        O    0.76630000  0.23370000  0.21330000  0.00000000
O        O    0.76630000  0.53260000  0.21330000  0.00000000
O        O    0.56703333  0.13406667  0.45336667  0.00000000
O        O    0.23370000  0.76630000  0.78670000  0.00000000
O        O    0.46740000  0.23370000  0.21330000  0.00000000
O        O    0.09963333  0.19926667  0.87996667  0.00000000
O        O    0.53260000  0.76630000  0.78670000  0.00000000
