data_CON

_cell_length_a  13.13473387
_cell_length_b  13.13473387
_cell_length_c  12.36420000
_cell_angle_alpha  71.94922195
_cell_angle_beta  71.94922195
_cell_angle_gamma  61.08880634


_symmetry_space_group_name_Hall ' P 1'
_symmetry_space_group_name_H-M  'P 1'
_symmetry_Int_Tables_number     1

loop_
_atom_site_label
_atom_site_type_symbol
_atom_site_fract_x
_atom_site_fract_y
_atom_site_fract_z
_atom_site_charge
Si       Si   0.82210000  0.04250000  0.50860000  0.00000000
Si       Si   0.17790000  0.95750000  0.49140000  0.00000000
Si       Si   0.95750000  0.17790000  0.49140000  0.00000000
Si       Si   0.04250000  0.82210000  0.50860000  0.00000000
Si       Si   0.65440000  0.03220000  0.74900000  0.00000000
Si       Si   0.34560000  0.96780000  0.25100000  0.00000000
Si       Si   0.96780000  0.34560000  0.25100000  0.00000000
Si       Si   0.03220000  0.65440000  0.74900000  0.00000000
Si       Si   0.80620000  0.04700000  0.26100000  0.00000000
Si       Si   0.19380000  0.95300000  0.73900000  0.00000000
Si       Si   0.95300000  0.19380000  0.73900000  0.00000000
Si       Si   0.04700000  0.80620000  0.26100000  0.00000000
Si       Si   0.59500000  0.82920000  0.89740000  0.00000000
Si       Si   0.40500000  0.17080000  0.10260000  0.00000000
Si       Si   0.17080000  0.40500000  0.10260000  0.00000000
Si       Si   0.82920000  0.59500000  0.89740000  0.00000000
Si       Si   0.60890000  0.83710000  0.13930000  0.00000000
Si       Si   0.39110000  0.16290000  0.86070000  0.00000000
Si       Si   0.16290000  0.39110000  0.86070000  0.00000000
Si       Si   0.83710000  0.60890000  0.13930000  0.00000000
Si       Si   0.80670000  0.04570000  0.89570000  0.00000000
Si       Si   0.19330000  0.95430000  0.10430000  0.00000000
Si       Si   0.95430000  0.19330000  0.10430000  0.00000000
Si       Si   0.04570000  0.80670000  0.89570000  0.00000000
Si       Si   0.66220000  0.04180000  0.11650000  0.00000000
Si       Si   0.33780000  0.95820000  0.88350000  0.00000000
Si       Si   0.95820000  0.33780000  0.88350000  0.00000000
Si       Si   0.04180000  0.66220000  0.11650000  0.00000000
O        O    0.07630000  0.07630000  0.42560000  0.00000000
O        O    0.92370000  0.92370000  0.57440000  0.00000000
O        O    0.78360000  0.05960000  0.39150000  0.00000000
O        O    0.21640000  0.94040000  0.60850000  0.00000000
O        O    0.94040000  0.21640000  0.60850000  0.00000000
O        O    0.05960000  0.78360000  0.39150000  0.00000000
O        O    0.71260000  0.04640000  0.61860000  0.00000000
O        O    0.28740000  0.95360000  0.38140000  0.00000000
O        O    0.95360000  0.28740000  0.38140000  0.00000000
O        O    0.04640000  0.71260000  0.61860000  0.00000000
O        O    0.85420000  0.14580000  0.50000000  0.00000000
O        O    0.14580000  0.85420000  0.50000000  0.00000000
O        O    0.66150000  0.90150000  0.79910000  0.00000000
O        O    0.33850000  0.09850000  0.20090000  0.00000000
O        O    0.09850000  0.33850000  0.20090000  0.00000000
O        O    0.90150000  0.66150000  0.79910000  0.00000000
O        O    0.73340000  0.04720000  0.81400000  0.00000000
O        O    0.26660000  0.95280000  0.18600000  0.00000000
O        O    0.95280000  0.26660000  0.18600000  0.00000000
O        O    0.04720000  0.73340000  0.81400000  0.00000000
O        O    0.52670000  0.12770000  0.78910000  0.00000000
O        O    0.47330000  0.87230000  0.21090000  0.00000000
O        O    0.87230000  0.47330000  0.21090000  0.00000000
O        O    0.12770000  0.52670000  0.78910000  0.00000000
O        O    0.08520000  0.08520000  0.73090000  0.00000000
O        O    0.91480000  0.91480000  0.26910000  0.00000000
O        O    0.86180000  0.13760000  0.17770000  0.00000000
O        O    0.13820000  0.86240000  0.82230000  0.00000000
O        O    0.86240000  0.13820000  0.82230000  0.00000000
O        O    0.13760000  0.86180000  0.17770000  0.00000000
O        O    0.68700000  0.05880000  0.22830000  0.00000000
O        O    0.31300000  0.94120000  0.77170000  0.00000000
O        O    0.94120000  0.31300000  0.77170000  0.00000000
O        O    0.05880000  0.68700000  0.22830000  0.00000000
O        O    0.30450000  0.30450000  0.12720000  0.00000000
O        O    0.69550000  0.69550000  0.87280000  0.00000000
O        O    0.59490000  0.86090000  0.00960000  0.00000000
O        O    0.40510000  0.13910000  0.99040000  0.00000000
O        O    0.13910000  0.40510000  0.99040000  0.00000000
O        O    0.86090000  0.59490000  0.00960000  0.00000000
O        O    0.46700000  0.84460000  0.90170000  0.00000000
O        O    0.53300000  0.15540000  0.09830000  0.00000000
O        O    0.15540000  0.53300000  0.09830000  0.00000000
O        O    0.84460000  0.46700000  0.90170000  0.00000000
O        O    0.66810000  0.91150000  0.16180000  0.00000000
O        O    0.33190000  0.08850000  0.83820000  0.00000000
O        O    0.08850000  0.33190000  0.83820000  0.00000000
O        O    0.91150000  0.66810000  0.16180000  0.00000000
O        O    0.30460000  0.30460000  0.82190000  0.00000000
O        O    0.69540000  0.69540000  0.17810000  0.00000000
O        O    0.08730000  0.08730000  0.10870000  0.00000000
O        O    0.91270000  0.91270000  0.89130000  0.00000000
O        O    0.73800000  0.09460000  0.01000000  0.00000000
O        O    0.26200000  0.90540000  0.99000000  0.00000000
O        O    0.90540000  0.26200000  0.99000000  0.00000000
O        O    0.09460000  0.73800000  0.01000000  0.00000000
