data_CON

_cell_length_a  22.62420000
_cell_length_b  13.35030000
_cell_length_c  12.36420000
_cell_angle_alpha  90.00000000
_cell_angle_beta  68.91300000
_cell_angle_gamma  90.00000000


_symmetry_space_group_name_Hall ' P 1'
_symmetry_space_group_name_H-M  'P 1'
_symmetry_Int_Tables_number     1

loop_
_atom_site_label
_atom_site_type_symbol
_atom_site_fract_x
_atom_site_fract_y
_atom_site_fract_z
_atom_site_charge
Si       Si   0.93230000  0.11020000  0.50860000  0.00000000
Si       Si   0.06770000  0.88980000  0.49140000  0.00000000
Si       Si   0.06770000  0.11020000  0.49140000  0.00000000
Si       Si   0.56770000  0.38980000  0.49140000  0.00000000
Si       Si   0.93230000  0.88980000  0.50860000  0.00000000
Si       Si   0.43230000  0.38980000  0.50860000  0.00000000
Si       Si   0.43230000  0.61020000  0.50860000  0.00000000
Si       Si   0.56770000  0.61020000  0.49140000  0.00000000
Si       Si   0.84330000  0.18890000  0.74900000  0.00000000
Si       Si   0.15670000  0.81110000  0.25100000  0.00000000
Si       Si   0.15670000  0.18890000  0.25100000  0.00000000
Si       Si   0.65670000  0.31110000  0.25100000  0.00000000
Si       Si   0.84330000  0.81110000  0.74900000  0.00000000
Si       Si   0.34330000  0.31110000  0.74900000  0.00000000
Si       Si   0.34330000  0.68890000  0.74900000  0.00000000
Si       Si   0.65670000  0.68890000  0.25100000  0.00000000
Si       Si   0.92660000  0.12040000  0.26100000  0.00000000
Si       Si   0.07340000  0.87960000  0.73900000  0.00000000
Si       Si   0.07340000  0.12040000  0.73900000  0.00000000
Si       Si   0.57340000  0.37960000  0.73900000  0.00000000
Si       Si   0.92660000  0.87960000  0.26100000  0.00000000
Si       Si   0.42660000  0.37960000  0.26100000  0.00000000
Si       Si   0.42660000  0.62040000  0.26100000  0.00000000
Si       Si   0.57340000  0.62040000  0.73900000  0.00000000
Si       Si   0.71210000  0.11710000  0.89740000  0.00000000
Si       Si   0.28790000  0.88290000  0.10260000  0.00000000
Si       Si   0.28790000  0.11710000  0.10260000  0.00000000
Si       Si   0.78790000  0.38290000  0.10260000  0.00000000
Si       Si   0.71210000  0.88290000  0.89740000  0.00000000
Si       Si   0.21210000  0.38290000  0.89740000  0.00000000
Si       Si   0.21210000  0.61710000  0.89740000  0.00000000
Si       Si   0.78790000  0.61710000  0.10260000  0.00000000
Si       Si   0.72300000  0.11410000  0.13930000  0.00000000
Si       Si   0.27700000  0.88590000  0.86070000  0.00000000
Si       Si   0.27700000  0.11410000  0.86070000  0.00000000
Si       Si   0.77700000  0.38590000  0.86070000  0.00000000
Si       Si   0.72300000  0.88590000  0.13930000  0.00000000
Si       Si   0.22300000  0.38590000  0.13930000  0.00000000
Si       Si   0.22300000  0.61410000  0.13930000  0.00000000
Si       Si   0.77700000  0.61410000  0.86070000  0.00000000
Si       Si   0.92620000  0.11950000  0.89570000  0.00000000
Si       Si   0.07380000  0.88050000  0.10430000  0.00000000
Si       Si   0.07380000  0.11950000  0.10430000  0.00000000
Si       Si   0.57380000  0.38050000  0.10430000  0.00000000
Si       Si   0.92620000  0.88050000  0.89570000  0.00000000
Si       Si   0.42620000  0.38050000  0.89570000  0.00000000
Si       Si   0.42620000  0.61950000  0.89570000  0.00000000
Si       Si   0.57380000  0.61950000  0.10430000  0.00000000
Si       Si   0.85200000  0.18980000  0.11650000  0.00000000
Si       Si   0.14800000  0.81020000  0.88350000  0.00000000
Si       Si   0.14800000  0.18980000  0.88350000  0.00000000
Si       Si   0.64800000  0.31020000  0.88350000  0.00000000
Si       Si   0.85200000  0.81020000  0.11650000  0.00000000
Si       Si   0.35200000  0.31020000  0.11650000  0.00000000
Si       Si   0.35200000  0.68980000  0.11650000  0.00000000
Si       Si   0.64800000  0.68980000  0.88350000  0.00000000
O        O    0.07630000  0.00000000  0.42560000  0.00000000
O        O    0.92370000  0.00000000  0.57440000  0.00000000
O        O    0.42370000  0.50000000  0.57440000  0.00000000
O        O    0.57630000  0.50000000  0.42560000  0.00000000
O        O    0.92160000  0.13800000  0.39150000  0.00000000
O        O    0.07840000  0.86200000  0.60850000  0.00000000
O        O    0.07840000  0.13800000  0.60850000  0.00000000
O        O    0.57840000  0.36200000  0.60850000  0.00000000
O        O    0.92160000  0.86200000  0.39150000  0.00000000
O        O    0.42160000  0.36200000  0.39150000  0.00000000
O        O    0.42160000  0.63800000  0.39150000  0.00000000
O        O    0.57840000  0.63800000  0.60850000  0.00000000
O        O    0.87950000  0.16690000  0.61860000  0.00000000
O        O    0.12050000  0.83310000  0.38140000  0.00000000
O        O    0.12050000  0.16690000  0.38140000  0.00000000
O        O    0.62050000  0.33310000  0.38140000  0.00000000
O        O    0.87950000  0.83310000  0.61860000  0.00000000
O        O    0.37950000  0.33310000  0.61860000  0.00000000
O        O    0.37950000  0.66690000  0.61860000  0.00000000
O        O    0.62050000  0.66690000  0.38140000  0.00000000
O        O    0.00000000  0.14580000  0.50000000  0.00000000
O        O    0.00000000  0.85420000  0.50000000  0.00000000
O        O    0.50000000  0.35420000  0.50000000  0.00000000
O        O    0.50000000  0.64580000  0.50000000  0.00000000
O        O    0.78150000  0.12000000  0.79910000  0.00000000
O        O    0.21850000  0.88000000  0.20090000  0.00000000
O        O    0.21850000  0.12000000  0.20090000  0.00000000
O        O    0.71850000  0.38000000  0.20090000  0.00000000
O        O    0.78150000  0.88000000  0.79910000  0.00000000
O        O    0.28150000  0.38000000  0.79910000  0.00000000
O        O    0.28150000  0.62000000  0.79910000  0.00000000
O        O    0.71850000  0.62000000  0.20090000  0.00000000
O        O    0.89030000  0.15690000  0.81400000  0.00000000
O        O    0.10970000  0.84310000  0.18600000  0.00000000
O        O    0.10970000  0.15690000  0.18600000  0.00000000
O        O    0.60970000  0.34310000  0.18600000  0.00000000
O        O    0.89030000  0.84310000  0.81400000  0.00000000
O        O    0.39030000  0.34310000  0.81400000  0.00000000
O        O    0.39030000  0.65690000  0.81400000  0.00000000
O        O    0.60970000  0.65690000  0.18600000  0.00000000
O        O    0.82720000  0.30050000  0.78910000  0.00000000
O        O    0.17280000  0.69950000  0.21090000  0.00000000
O        O    0.17280000  0.30050000  0.21090000  0.00000000
O        O    0.67280000  0.19950000  0.21090000  0.00000000
O        O    0.82720000  0.69950000  0.78910000  0.00000000
O        O    0.32720000  0.19950000  0.78910000  0.00000000
O        O    0.32720000  0.80050000  0.78910000  0.00000000
O        O    0.67280000  0.80050000  0.21090000  0.00000000
O        O    0.08520000  0.00000000  0.73090000  0.00000000
O        O    0.91480000  0.00000000  0.26910000  0.00000000
O        O    0.41480000  0.50000000  0.26910000  0.00000000
O        O    0.58520000  0.50000000  0.73090000  0.00000000
O        O    0.99970000  0.13790000  0.17770000  0.00000000
O        O    0.00030000  0.86210000  0.82230000  0.00000000
O        O    0.00030000  0.13790000  0.82230000  0.00000000
O        O    0.50030000  0.36210000  0.82230000  0.00000000
O        O    0.99970000  0.86210000  0.17770000  0.00000000
O        O    0.49970000  0.36210000  0.17770000  0.00000000
O        O    0.49970000  0.63790000  0.17770000  0.00000000
O        O    0.50030000  0.63790000  0.82230000  0.00000000
O        O    0.87290000  0.18590000  0.22830000  0.00000000
O        O    0.12710000  0.81410000  0.77170000  0.00000000
O        O    0.12710000  0.18590000  0.77170000  0.00000000
O        O    0.62710000  0.31410000  0.77170000  0.00000000
O        O    0.87290000  0.81410000  0.22830000  0.00000000
O        O    0.37290000  0.31410000  0.22830000  0.00000000
O        O    0.37290000  0.68590000  0.22830000  0.00000000
O        O    0.62710000  0.68590000  0.77170000  0.00000000
O        O    0.30450000  0.00000000  0.12720000  0.00000000
O        O    0.69550000  0.00000000  0.87280000  0.00000000
O        O    0.19550000  0.50000000  0.87280000  0.00000000
O        O    0.80450000  0.50000000  0.12720000  0.00000000
O        O    0.72790000  0.13300000  0.00960000  0.00000000
O        O    0.27210000  0.86700000  0.99040000  0.00000000
O        O    0.27210000  0.13300000  0.99040000  0.00000000
O        O    0.77210000  0.36700000  0.99040000  0.00000000
O        O    0.72790000  0.86700000  0.00960000  0.00000000
O        O    0.22790000  0.36700000  0.00960000  0.00000000
O        O    0.22790000  0.63300000  0.00960000  0.00000000
O        O    0.77210000  0.63300000  0.99040000  0.00000000
O        O    0.65580000  0.18880000  0.90170000  0.00000000
O        O    0.34420000  0.81120000  0.09830000  0.00000000
O        O    0.34420000  0.18880000  0.09830000  0.00000000
O        O    0.84420000  0.31120000  0.09830000  0.00000000
O        O    0.65580000  0.81120000  0.90170000  0.00000000
O        O    0.15580000  0.31120000  0.90170000  0.00000000
O        O    0.15580000  0.68880000  0.90170000  0.00000000
O        O    0.84420000  0.68880000  0.09830000  0.00000000
O        O    0.78980000  0.12170000  0.16180000  0.00000000
O        O    0.21020000  0.87830000  0.83820000  0.00000000
O        O    0.21020000  0.12170000  0.83820000  0.00000000
O        O    0.71020000  0.37830000  0.83820000  0.00000000
O        O    0.78980000  0.87830000  0.16180000  0.00000000
O        O    0.28980000  0.37830000  0.16180000  0.00000000
O        O    0.28980000  0.62170000  0.16180000  0.00000000
O        O    0.71020000  0.62170000  0.83820000  0.00000000
O        O    0.30460000  0.00000000  0.82190000  0.00000000
O        O    0.69540000  0.00000000  0.17810000  0.00000000
O        O    0.19540000  0.50000000  0.17810000  0.00000000
O        O    0.80460000  0.50000000  0.82190000  0.00000000
O        O    0.08730000  0.00000000  0.10870000  0.00000000
O        O    0.91270000  0.00000000  0.89130000  0.00000000
O        O    0.41270000  0.50000000  0.89130000  0.00000000
O        O    0.58730000  0.50000000  0.10870000  0.00000000
O        O    0.91630000  0.17830000  0.01000000  0.00000000
O        O    0.08370000  0.82170000  0.99000000  0.00000000
O        O    0.08370000  0.17830000  0.99000000  0.00000000
O        O    0.58370000  0.32170000  0.99000000  0.00000000
O        O    0.91630000  0.82170000  0.01000000  0.00000000
O        O    0.41630000  0.32170000  0.01000000  0.00000000
O        O    0.41630000  0.67830000  0.01000000  0.00000000
O        O    0.58370000  0.67830000  0.99000000  0.00000000
