data_DDR

_cell_length_a  13.86000000
_cell_length_b  13.86000000
_cell_length_c  40.89100000
_cell_angle_alpha  90.00000000
_cell_angle_beta  90.00000000
_cell_angle_gamma  120.00000000


_symmetry_space_group_name_Hall ' P 1'
_symmetry_space_group_name_H-M  'P 1'
_symmetry_Int_Tables_number     1

loop_
_atom_site_label
_atom_site_type_symbol
_atom_site_fract_x
_atom_site_fract_y
_atom_site_fract_z
_atom_site_charge
Si       Si   0.00893333  0.39336667  0.59666667  2.05000000
Si       Si   0.28223333  0.34226667  0.73666667  2.05000000
Si       Si   0.65773333  0.71776667  0.73666667  2.05000000
Si       Si   0.99106667  0.38443333  0.40333333  2.05000000
Si       Si   0.38443333  0.39336667  0.59666667  2.05000000
Si       Si   0.60663333  0.99106667  0.59666667  2.05000000
Si       Si   0.27330000  0.94890000  0.93000000  2.05000000
Si       Si   0.94890000  0.67560000  0.07000000  2.05000000
Si       Si   0.27330000  0.32440000  0.93000000  2.05000000
Si       Si   0.32440000  0.05110000  0.07000000  2.05000000
Si       Si   0.05110000  0.72670000  0.93000000  2.05000000
Si       Si   0.72670000  0.67560000  0.07000000  2.05000000
Si       Si   0.93996667  0.65773333  0.26333333  2.05000000
Si       Si   0.00893333  0.61556667  0.59666667  2.05000000
Si       Si   0.06003333  0.34226667  0.73666667  2.05000000
Si       Si   0.72670000  0.05110000  0.07000000  2.05000000
Si       Si   0.60663333  0.61556667  0.59666667  2.05000000
Si       Si   0.39336667  0.38443333  0.40333333  2.05000000
Si       Si   0.38443333  0.99106667  0.59666667  2.05000000
Si       Si   0.94890000  0.27330000  0.07000000  2.05000000
Si       Si   0.67560000  0.72670000  0.93000000  2.05000000
Si       Si   0.99106667  0.60663333  0.40333333  2.05000000
Si       Si   0.61556667  0.60663333  0.40333333  2.05000000
Si       Si   0.71776667  0.06003333  0.26333333  2.05000000
Si       Si   0.61556667  0.00893333  0.40333333  2.05000000
Si       Si   0.28223333  0.93996667  0.73666667  2.05000000
Si       Si   0.34226667  0.06003333  0.26333333  2.05000000
Si       Si   0.67560000  0.94890000  0.93000000  2.05000000
Si       Si   0.32440000  0.27330000  0.07000000  2.05000000
Si       Si   0.93996667  0.28223333  0.26333333  2.05000000
Si       Si   0.71776667  0.65773333  0.26333333  2.05000000
Si       Si   0.39336667  0.00893333  0.40333333  2.05000000
Si       Si   0.06003333  0.71776667  0.73666667  2.05000000
Si       Si   0.34226667  0.28223333  0.26333333  2.05000000
Si       Si   0.05110000  0.32440000  0.93000000  2.05000000
Si       Si   0.65773333  0.93996667  0.73666667  2.05000000
Si       Si   0.20693333  0.79296667  0.55716667  2.05000000
Si       Si   0.12640000  0.25270000  0.10950000  2.05000000
Si       Si   0.20693333  0.41396667  0.55716667  2.05000000
Si       Si   0.79306667  0.58603333  0.44283333  2.05000000
Si       Si   0.58603333  0.79296667  0.55716667  2.05000000
Si       Si   0.74730000  0.87360000  0.10950000  2.05000000
Si       Si   0.87370000  0.12640000  0.89050000  2.05000000
Si       Si   0.41396667  0.20703333  0.44283333  2.05000000
Si       Si   0.08063333  0.54026667  0.77616667  2.05000000
Si       Si   0.54036667  0.45973333  0.22383333  2.05000000
Si       Si   0.87370000  0.74730000  0.89050000  2.05000000
Si       Si   0.12630000  0.87360000  0.10950000  2.05000000
Si       Si   0.91936667  0.45963333  0.22383333  2.05000000
Si       Si   0.79306667  0.20703333  0.44283333  2.05000000
Si       Si   0.45973333  0.91936667  0.77616667  2.05000000
Si       Si   0.54036667  0.08063333  0.22383333  2.05000000
Si       Si   0.25270000  0.12630000  0.89050000  2.05000000
Si       Si   0.45963333  0.54026667  0.77616667  2.05000000
Si       Si   0.13133333  0.86856667  0.49556667  2.05000000
Si       Si   0.20200000  0.40390000  0.17110000  2.05000000
Si       Si   0.13133333  0.26276667  0.49556667  2.05000000
Si       Si   0.86866667  0.73723333  0.50443333  2.05000000
Si       Si   0.73723333  0.86856667  0.49556667  2.05000000
Si       Si   0.59610000  0.79800000  0.17110000  2.05000000
Si       Si   0.79810000  0.20200000  0.82890000  2.05000000
Si       Si   0.26276667  0.13143333  0.50443333  2.05000000
Si       Si   0.92943333  0.46466667  0.83776667  2.05000000
Si       Si   0.46476667  0.53533333  0.16223333  2.05000000
Si       Si   0.79810000  0.59610000  0.82890000  2.05000000
Si       Si   0.20190000  0.79800000  0.17110000  2.05000000
Si       Si   0.07056667  0.53523333  0.16223333  2.05000000
Si       Si   0.86866667  0.13143333  0.50443333  2.05000000
Si       Si   0.53533333  0.07056667  0.83776667  2.05000000
Si       Si   0.46476667  0.92943333  0.16223333  2.05000000
Si       Si   0.40390000  0.20190000  0.82890000  2.05000000
Si       Si   0.53523333  0.46466667  0.83776667  2.05000000
Si       Si   0.21063333  0.78936667  0.43416667  2.05000000
Si       Si   0.12270000  0.24540000  0.23250000  2.05000000
Si       Si   0.21063333  0.42126667  0.43416667  2.05000000
Si       Si   0.78936667  0.57873333  0.56583333  2.05000000
Si       Si   0.57873333  0.78936667  0.43416667  2.05000000
Si       Si   0.75460000  0.87730000  0.23250000  2.05000000
Si       Si   0.87730000  0.12270000  0.76750000  2.05000000
Si       Si   0.42126667  0.21063333  0.56583333  2.05000000
Si       Si   0.08793333  0.54396667  0.89916667  2.05000000
Si       Si   0.54396667  0.45603333  0.10083333  2.05000000
Si       Si   0.87730000  0.75460000  0.76750000  2.05000000
Si       Si   0.12270000  0.87730000  0.23250000  2.05000000
Si       Si   0.91206667  0.45603333  0.10083333  2.05000000
Si       Si   0.78936667  0.21063333  0.56583333  2.05000000
Si       Si   0.45603333  0.91206667  0.89916667  2.05000000
Si       Si   0.54396667  0.08793333  0.10083333  2.05000000
Si       Si   0.24540000  0.12270000  0.76750000  2.05000000
Si       Si   0.45603333  0.54396667  0.89916667  2.05000000
Si       Si   0.33333333  0.89226667  0.66666667  2.05000000
Si       Si   0.77440000  0.00000000  0.00000000  2.05000000
Si       Si   0.00000000  0.22560000  0.00000000  2.05000000
Si       Si   0.55893333  0.89226667  0.66666667  2.05000000
Si       Si   0.10773333  0.66666667  0.66666667  2.05000000
Si       Si   0.22560000  0.22560000  0.00000000  2.05000000
Si       Si   0.44106667  0.10773333  0.33333333  2.05000000
Si       Si   0.66666667  0.55893333  0.33333333  2.05000000
Si       Si   0.33333333  0.44106667  0.66666667  2.05000000
Si       Si   0.22560000  0.00000000  0.00000000  2.05000000
Si       Si   0.77440000  0.77440000  0.00000000  2.05000000
Si       Si   0.44106667  0.33333333  0.33333333  2.05000000
Si       Si   0.66666667  0.10773333  0.33333333  2.05000000
Si       Si   0.89226667  0.55893333  0.33333333  2.05000000
Si       Si   0.55893333  0.66666667  0.66666667  2.05000000
Si       Si   0.89226667  0.33333333  0.33333333  2.05000000
Si       Si   0.00000000  0.77440000  0.00000000  2.05000000
Si       Si   0.10773333  0.44106667  0.66666667  2.05000000
Si       Si   0.33333333  0.66666667  0.46276667  2.05000000
Si       Si   0.00000000  0.00000000  0.20390000  2.05000000
Si       Si   0.66666667  0.33333333  0.53723333  2.05000000
Si       Si   0.66666667  0.33333333  0.12943333  2.05000000
Si       Si   0.00000000  0.00000000  0.79610000  2.05000000
Si       Si   0.33333333  0.66666667  0.87056667  2.05000000
Si       Si   0.33333333  0.66666667  0.53866667  2.05000000
Si       Si   0.00000000  0.00000000  0.12800000  2.05000000
Si       Si   0.66666667  0.33333333  0.46133333  2.05000000
Si       Si   0.66666667  0.33333333  0.20533333  2.05000000
Si       Si   0.00000000  0.00000000  0.87200000  2.05000000
Si       Si   0.33333333  0.66666667  0.79466667  2.05000000
O        O    0.30283333  0.02426667  0.03086667 -1.02500000
O        O    0.94523333  0.63616667  0.30246667 -1.02500000
O        O    0.36383333  0.05476667  0.30246667 -1.02500000
O        O    0.69716667  0.72143333  0.96913333 -1.02500000
O        O    0.72143333  0.02426667  0.03086667 -1.02500000
O        O    0.97573333  0.69716667  0.03086667 -1.02500000
O        O    0.64240000  0.61190000  0.36420000 -1.02500000
O        O    0.61190000  0.96950000  0.63580000 -1.02500000
O        O    0.64240000  0.03050000  0.36420000 -1.02500000
O        O    0.03050000  0.38810000  0.63580000 -1.02500000
O        O    0.38810000  0.35760000  0.36420000 -1.02500000
O        O    0.35760000  0.96950000  0.63580000 -1.02500000
O        O    0.30906667  0.36383333  0.69753333 -1.02500000
O        O    0.30283333  0.27856667  0.03086667 -1.02500000
O        O    0.69093333  0.63616667  0.30246667 -1.02500000
O        O    0.35760000  0.38810000  0.63580000 -1.02500000
O        O    0.97573333  0.27856667  0.03086667 -1.02500000
O        O    0.02426667  0.72143333  0.96913333 -1.02500000
O        O    0.72143333  0.69716667  0.03086667 -1.02500000
O        O    0.61190000  0.64240000  0.63580000 -1.02500000
O        O    0.96950000  0.35760000  0.36420000 -1.02500000
O        O    0.69716667  0.97573333  0.96913333 -1.02500000
O        O    0.27856667  0.97573333  0.96913333 -1.02500000
O        O    0.05476667  0.69093333  0.69753333 -1.02500000
O        O    0.27856667  0.30283333  0.96913333 -1.02500000
O        O    0.94523333  0.30906667  0.30246667 -1.02500000
O        O    0.63616667  0.69093333  0.69753333 -1.02500000
O        O    0.96950000  0.61190000  0.36420000 -1.02500000
O        O    0.03050000  0.64240000  0.63580000 -1.02500000
O        O    0.30906667  0.94523333  0.69753333 -1.02500000
O        O    0.05476667  0.36383333  0.69753333 -1.02500000
O        O    0.02426667  0.30283333  0.96913333 -1.02500000
O        O    0.69093333  0.05476667  0.30246667 -1.02500000
O        O    0.63616667  0.94523333  0.69753333 -1.02500000
O        O    0.38810000  0.03050000  0.36420000 -1.02500000
O        O    0.36383333  0.30906667  0.30246667 -1.02500000
O        O    0.23763333  0.94586667  0.08986667 -1.02500000
O        O    0.95843333  0.57096667  0.24346667 -1.02500000
O        O    0.42903333  0.04156667  0.24346667 -1.02500000
O        O    0.76236667  0.70823333  0.91013333 -1.02500000
O        O    0.70823333  0.94586667  0.08986667 -1.02500000
O        O    0.05413333  0.76236667  0.08986667 -1.02500000
O        O    0.72080000  0.62510000  0.42320000 -1.02500000
O        O    0.62510000  0.90430000  0.57680000 -1.02500000
O        O    0.72080000  0.09570000  0.42320000 -1.02500000
O        O    0.09570000  0.37490000  0.57680000 -1.02500000
O        O    0.37490000  0.27920000  0.42320000 -1.02500000
O        O    0.27920000  0.90430000  0.57680000 -1.02500000
O        O    0.38746667  0.42903333  0.75653333 -1.02500000
O        O    0.23763333  0.29176667  0.08986667 -1.02500000
O        O    0.61253333  0.57096667  0.24346667 -1.02500000
O        O    0.27920000  0.37490000  0.57680000 -1.02500000
O        O    0.05413333  0.29176667  0.08986667 -1.02500000
O        O    0.94586667  0.70823333  0.91013333 -1.02500000
O        O    0.70823333  0.76236667  0.08986667 -1.02500000
O        O    0.62510000  0.72080000  0.57680000 -1.02500000
O        O    0.90430000  0.27920000  0.42320000 -1.02500000
O        O    0.76236667  0.05413333  0.91013333 -1.02500000
O        O    0.29176667  0.05413333  0.91013333 -1.02500000
O        O    0.04156667  0.61253333  0.75653333 -1.02500000
O        O    0.29176667  0.23763333  0.91013333 -1.02500000
O        O    0.95843333  0.38746667  0.24346667 -1.02500000
O        O    0.57096667  0.61253333  0.75653333 -1.02500000
O        O    0.90430000  0.62510000  0.42320000 -1.02500000
O        O    0.09570000  0.72080000  0.57680000 -1.02500000
O        O    0.38746667  0.95843333  0.75653333 -1.02500000
O        O    0.04156667  0.42903333  0.75653333 -1.02500000
O        O    0.94586667  0.23763333  0.91013333 -1.02500000
O        O    0.61253333  0.04156667  0.24346667 -1.02500000
O        O    0.57096667  0.95843333  0.75653333 -1.02500000
O        O    0.37490000  0.09570000  0.42320000 -1.02500000
O        O    0.42903333  0.38746667  0.24346667 -1.02500000
O        O    0.44463333  0.07336667  0.07776667 -1.02500000
O        O    0.03793333  0.77796667  0.25556667 -1.02500000
O        O    0.22203333  0.96206667  0.25556667 -1.02500000
O        O    0.55536667  0.62873333  0.92223333 -1.02500000
O        O    0.62873333  0.07336667  0.07776667 -1.02500000
O        O    0.92663333  0.55536667  0.07776667 -1.02500000
O        O    0.59330000  0.70460000  0.41110000 -1.02500000
O        O    0.70460000  0.11130000  0.58890000 -1.02500000
O        O    0.59330000  0.88870000  0.41110000 -1.02500000
O        O    0.88870000  0.29540000  0.58890000 -1.02500000
O        O    0.29540000  0.40670000  0.41110000 -1.02500000
O        O    0.40670000  0.11130000  0.58890000 -1.02500000
O        O    0.25996667  0.22203333  0.74443333 -1.02500000
O        O    0.44463333  0.37126667  0.07776667 -1.02500000
O        O    0.74003333  0.77796667  0.25556667 -1.02500000
O        O    0.40670000  0.29540000  0.58890000 -1.02500000
O        O    0.92663333  0.37126667  0.07776667 -1.02500000
O        O    0.07336667  0.62873333  0.92223333 -1.02500000
O        O    0.62873333  0.55536667  0.07776667 -1.02500000
O        O    0.70460000  0.59330000  0.58890000 -1.02500000
O        O    0.11130000  0.40670000  0.41110000 -1.02500000
O        O    0.55536667  0.92663333  0.92223333 -1.02500000
O        O    0.37126667  0.92663333  0.92223333 -1.02500000
O        O    0.96206667  0.74003333  0.74443333 -1.02500000
O        O    0.37126667  0.44463333  0.92223333 -1.02500000
O        O    0.03793333  0.25996667  0.25556667 -1.02500000
O        O    0.77796667  0.74003333  0.74443333 -1.02500000
O        O    0.11130000  0.70460000  0.41110000 -1.02500000
O        O    0.88870000  0.59330000  0.58890000 -1.02500000
O        O    0.25996667  0.03793333  0.74443333 -1.02500000
O        O    0.96206667  0.22203333  0.74443333 -1.02500000
O        O    0.07336667  0.44463333  0.92223333 -1.02500000
O        O    0.74003333  0.96206667  0.25556667 -1.02500000
O        O    0.77796667  0.03793333  0.74443333 -1.02500000
O        O    0.29540000  0.88870000  0.41110000 -1.02500000
O        O    0.22203333  0.25996667  0.25556667 -1.02500000
O        O    0.10563333  0.89436667  0.00776667 -1.02500000
O        O    0.22770000  0.45540000  0.65890000 -1.02500000
O        O    0.10563333  0.21126667  0.00776667 -1.02500000
O        O    0.89436667  0.78873333  0.99223333 -1.02500000
O        O    0.78873333  0.89436667  0.00776667 -1.02500000
O        O    0.54460000  0.77230000  0.65890000 -1.02500000
O        O    0.77230000  0.22770000  0.34110000 -1.02500000
O        O    0.21126667  0.10563333  0.99223333 -1.02500000
O        O    0.87793333  0.43896667  0.32556667 -1.02500000
O        O    0.43896667  0.56103333  0.67443333 -1.02500000
O        O    0.77230000  0.54460000  0.34110000 -1.02500000
O        O    0.22770000  0.77230000  0.65890000 -1.02500000
O        O    0.12206667  0.56103333  0.67443333 -1.02500000
O        O    0.89436667  0.10563333  0.99223333 -1.02500000
O        O    0.56103333  0.12206667  0.32556667 -1.02500000
O        O    0.43896667  0.87793333  0.67443333 -1.02500000
O        O    0.45540000  0.22770000  0.34110000 -1.02500000
O        O    0.56103333  0.43896667  0.32556667 -1.02500000
O        O    0.15663333  0.84336667  0.92196667 -1.02500000
O        O    0.17670000  0.35340000  0.74470000 -1.02500000
O        O    0.15663333  0.31326667  0.92196667 -1.02500000
O        O    0.84336667  0.68673333  0.07803333 -1.02500000
O        O    0.68673333  0.84336667  0.92196667 -1.02500000
O        O    0.64660000  0.82330000  0.74470000 -1.02500000
O        O    0.82330000  0.17670000  0.25530000 -1.02500000
O        O    0.31326667  0.15663333  0.07803333 -1.02500000
O        O    0.97993333  0.48996667  0.41136667 -1.02500000
O        O    0.48996667  0.51003333  0.58863333 -1.02500000
O        O    0.82330000  0.64660000  0.25530000 -1.02500000
O        O    0.17670000  0.82330000  0.74470000 -1.02500000
O        O    0.02006667  0.51003333  0.58863333 -1.02500000
O        O    0.84336667  0.15663333  0.07803333 -1.02500000
O        O    0.51003333  0.02006667  0.41136667 -1.02500000
O        O    0.48996667  0.97993333  0.58863333 -1.02500000
O        O    0.35340000  0.17670000  0.25530000 -1.02500000
O        O    0.51003333  0.48996667  0.41136667 -1.02500000
O        O    0.17163333  0.82826667  0.20576667 -1.02500000
O        O    0.49493333  0.98996667  0.12756667 -1.02500000
O        O    0.67670000  0.83830000  0.46090000 -1.02500000
O        O    0.83830000  0.16160000  0.53910000 -1.02500000
O        O    0.32330000  0.16160000  0.53910000 -1.02500000
O        O    0.01003333  0.50506667  0.12756667 -1.02500000
O        O    0.49493333  0.50496667  0.12756667 -1.02500000
O        O    0.16170000  0.32330000  0.46090000 -1.02500000
O        O    0.50506667  0.01003333  0.87243333 -1.02500000
O        O    0.50506667  0.49503333  0.87243333 -1.02500000
O        O    0.82836667  0.65663333  0.79423333 -1.02500000
O        O    0.83830000  0.67670000  0.53910000 -1.02500000
O        O    0.34336667  0.17173333  0.79423333 -1.02500000
O        O    0.98996667  0.49503333  0.87243333 -1.02500000
O        O    0.65663333  0.82826667  0.20576667 -1.02500000
O        O    0.82836667  0.17173333  0.79423333 -1.02500000
O        O    0.16160000  0.83830000  0.46090000 -1.02500000
O        O    0.17163333  0.34336667  0.20576667 -1.02500000
O        O    0.06323333  0.93666667  0.21606667 -1.02500000
O        O    0.60333333  0.20676667  0.11726667 -1.02500000
O        O    0.45990000  0.72990000  0.45060000 -1.02500000
O        O    0.72990000  0.27000000  0.54940000 -1.02500000
O        O    0.54010000  0.27000000  0.54940000 -1.02500000
O        O    0.79323333  0.39666667  0.11726667 -1.02500000
O        O    0.60333333  0.39656667  0.11726667 -1.02500000
O        O    0.27010000  0.54010000  0.45060000 -1.02500000
O        O    0.39666667  0.79323333  0.88273333 -1.02500000
O        O    0.39666667  0.60343333  0.88273333 -1.02500000
O        O    0.93676667  0.87343333  0.78393333 -1.02500000
O        O    0.72990000  0.45990000  0.54940000 -1.02500000
O        O    0.12656667  0.06333333  0.78393333 -1.02500000
O        O    0.20676667  0.60343333  0.88273333 -1.02500000
O        O    0.87343333  0.93666667  0.21606667 -1.02500000
O        O    0.93676667  0.06333333  0.78393333 -1.02500000
O        O    0.27000000  0.72990000  0.45060000 -1.02500000
O        O    0.06323333  0.12656667  0.21606667 -1.02500000
O        O    0.06203333  0.93796667  0.11376667 -1.02500000
O        O    0.27130000  0.54260000  0.55290000 -1.02500000
O        O    0.06203333  0.12406667  0.11376667 -1.02500000
O        O    0.93796667  0.87593333  0.88623333 -1.02500000
O        O    0.87593333  0.93796667  0.11376667 -1.02500000
O        O    0.45740000  0.72870000  0.55290000 -1.02500000
O        O    0.72870000  0.27130000  0.44710000 -1.02500000
O        O    0.12406667  0.06203333  0.88623333 -1.02500000
O        O    0.79073333  0.39536667  0.21956667 -1.02500000
O        O    0.39536667  0.60463333  0.78043333 -1.02500000
O        O    0.72870000  0.45740000  0.44710000 -1.02500000
O        O    0.27130000  0.72870000  0.55290000 -1.02500000
O        O    0.20926667  0.60463333  0.78043333 -1.02500000
O        O    0.93796667  0.06203333  0.88623333 -1.02500000
O        O    0.60463333  0.20926667  0.21956667 -1.02500000
O        O    0.39536667  0.79073333  0.78043333 -1.02500000
O        O    0.54260000  0.27130000  0.44710000 -1.02500000
O        O    0.60463333  0.39536667  0.21956667 -1.02500000
O        O    0.15533333  0.84476667  0.14366667 -1.02500000
O        O    0.17800000  0.35610000  0.52300000 -1.02500000
O        O    0.15533333  0.31056667  0.14366667 -1.02500000
O        O    0.84466667  0.68943333  0.85633333 -1.02500000
O        O    0.68943333  0.84476667  0.14366667 -1.02500000
O        O    0.64390000  0.82200000  0.52300000 -1.02500000
O        O    0.82190000  0.17800000  0.47700000 -1.02500000
O        O    0.31056667  0.15523333  0.85633333 -1.02500000
O        O    0.97723333  0.48866667  0.18966667 -1.02500000
O        O    0.48856667  0.51133333  0.81033333 -1.02500000
O        O    0.82190000  0.64390000  0.47700000 -1.02500000
O        O    0.17810000  0.82200000  0.52300000 -1.02500000
O        O    0.02276667  0.51143333  0.81033333 -1.02500000
O        O    0.84466667  0.15523333  0.85633333 -1.02500000
O        O    0.51133333  0.02276667  0.18966667 -1.02500000
O        O    0.48856667  0.97723333  0.81033333 -1.02500000
O        O    0.35610000  0.17810000  0.47700000 -1.02500000
O        O    0.51143333  0.48866667  0.18966667 -1.02500000
O        O    0.33333333  0.85366667  0.16666667 -1.02500000
O        O    0.81300000  0.00000000  0.50000000 -1.02500000
O        O    0.00000000  0.18700000  0.50000000 -1.02500000
O        O    0.52033333  0.85366667  0.16666667 -1.02500000
O        O    0.14633333  0.66666667  0.16666667 -1.02500000
O        O    0.18700000  0.18700000  0.50000000 -1.02500000
O        O    0.47966667  0.14633333  0.83333333 -1.02500000
O        O    0.66666667  0.52033333  0.83333333 -1.02500000
O        O    0.33333333  0.47966667  0.16666667 -1.02500000
O        O    0.18700000  0.00000000  0.50000000 -1.02500000
O        O    0.81300000  0.81300000  0.50000000 -1.02500000
O        O    0.47966667  0.33333333  0.83333333 -1.02500000
O        O    0.66666667  0.14633333  0.83333333 -1.02500000
O        O    0.85366667  0.52033333  0.83333333 -1.02500000
O        O    0.52033333  0.66666667  0.16666667 -1.02500000
O        O    0.85366667  0.33333333  0.83333333 -1.02500000
O        O    0.00000000  0.81300000  0.50000000 -1.02500000
O        O    0.14633333  0.47966667  0.16666667 -1.02500000
O        O    0.33333333  0.66666667  0.50056667 -1.02500000
O        O    0.00000000  0.00000000  0.16610000 -1.02500000
O        O    0.66666667  0.33333333  0.49943333 -1.02500000
O        O    0.66666667  0.33333333  0.16723333 -1.02500000
O        O    0.00000000  0.00000000  0.83390000 -1.02500000
O        O    0.33333333  0.66666667  0.83276667 -1.02500000
