data_DON

_cell_length_a  14.97010000
_cell_length_b  8.47610000
_cell_length_c  30.02780000
_cell_angle_alpha  90.00000000
_cell_angle_beta  102.65000000
_cell_angle_gamma  90.00000000


_symmetry_space_group_name_Hall ' P 1'
_symmetry_space_group_name_H-M  'P 1'
_symmetry_Int_Tables_number     1

loop_
_atom_site_label
_atom_site_type_symbol
_atom_site_fract_x
_atom_site_fract_y
_atom_site_fract_z
_atom_site_charge
Si       Si   0.09600000  0.82000000  0.60660000  0.00000000
Si       Si   0.09600000  0.18000000  0.10660000  0.00000000
Si       Si   0.07600000  0.68700000  0.69860000  0.00000000
Si       Si   0.07600000  0.31300000  0.19860000  0.00000000
Si       Si   0.12400000  0.82000000  0.79430000  0.00000000
Si       Si   0.12400000  0.18000000  0.29430000  0.00000000
Si       Si   0.24000000  0.69500000  0.88240000  0.00000000
Si       Si   0.24000000  0.30500000  0.38240000  0.00000000
Si       Si   0.41000000  0.82400000  0.93740000  0.00000000
Si       Si   0.41000000  0.17600000  0.43740000  0.00000000
Si       Si   0.60800000  0.69400000  0.96890000  0.00000000
Si       Si   0.60800000  0.30600000  0.46890000  0.00000000
Si       Si   0.79300000  0.81700000  0.96540000  0.00000000
Si       Si   0.79300000  0.18300000  0.46540000  0.00000000
Si       Si   0.91200000  0.69300000  0.89920000  0.00000000
Si       Si   0.91200000  0.30700000  0.39920000  0.00000000
Si       Si   0.92900000  0.81800000  0.80450000  0.00000000
Si       Si   0.92900000  0.18200000  0.30450000  0.00000000
Si       Si   0.86800000  0.69100000  0.70720000  0.00000000
Si       Si   0.86800000  0.30900000  0.20720000  0.00000000
Si       Si   0.76900000  0.82400000  0.61990000  0.00000000
Si       Si   0.76900000  0.17600000  0.11990000  0.00000000
Si       Si   0.58500000  0.69200000  0.56590000  0.00000000
Si       Si   0.58500000  0.30800000  0.06590000  0.00000000
Si       Si   0.39800000  0.81000000  0.54000000  0.00000000
Si       Si   0.39800000  0.19000000  0.04000000  0.00000000
Si       Si   0.20600000  0.68400000  0.54100000  0.00000000
Si       Si   0.20600000  0.31600000  0.04100000  0.00000000
Si       Si   0.90200000  0.68200000  0.56310000  0.00000000
Si       Si   0.90200000  0.31800000  0.06310000  0.00000000
Si       Si   0.10800000  0.82000000  0.94320000  0.00000000
Si       Si   0.10800000  0.18000000  0.44320000  0.00000000
Si       Si   0.08100000  0.18400000  0.60460000  0.00000000
Si       Si   0.08100000  0.81600000  0.10460000  0.00000000
Si       Si   0.07600000  0.32500000  0.69940000  0.00000000
Si       Si   0.07600000  0.67500000  0.19940000  0.00000000
Si       Si   0.12700000  0.19300000  0.79360000  0.00000000
Si       Si   0.12700000  0.80700000  0.29360000  0.00000000
Si       Si   0.23900000  0.32200000  0.88360000  0.00000000
Si       Si   0.23900000  0.67800000  0.38360000  0.00000000
Si       Si   0.41800000  0.19200000  0.93660000  0.00000000
Si       Si   0.41800000  0.80800000  0.43660000  0.00000000
Si       Si   0.60400000  0.31300000  0.96630000  0.00000000
Si       Si   0.60400000  0.68700000  0.46630000  0.00000000
Si       Si   0.79800000  0.19000000  0.96720000  0.00000000
Si       Si   0.79800000  0.81000000  0.46720000  0.00000000
Si       Si   0.91400000  0.32100000  0.90240000  0.00000000
Si       Si   0.91400000  0.67900000  0.40240000  0.00000000
Si       Si   0.93100000  0.20300000  0.80520000  0.00000000
Si       Si   0.93100000  0.79700000  0.30520000  0.00000000
Si       Si   0.86700000  0.33000000  0.70960000  0.00000000
Si       Si   0.86700000  0.67000000  0.20960000  0.00000000
Si       Si   0.76200000  0.19100000  0.62110000  0.00000000
Si       Si   0.76200000  0.80900000  0.12110000  0.00000000
Si       Si   0.58700000  0.68700000  0.06590000  0.00000000
Si       Si   0.58700000  0.31300000  0.56590000  0.00000000
Si       Si   0.38600000  0.81900000  0.03740000  0.00000000
Si       Si   0.38600000  0.18100000  0.53740000  0.00000000
Si       Si   0.19400000  0.31500000  0.54000000  0.00000000
Si       Si   0.19400000  0.68500000  0.04000000  0.00000000
Si       Si   0.89000000  0.68200000  0.06250000  0.00000000
Si       Si   0.89000000  0.31800000  0.56250000  0.00000000
Si       Si   0.11000000  0.19200000  0.94580000  0.00000000
Si       Si   0.11000000  0.80800000  0.44580000  0.00000000
O        O    0.16900000  0.72200000  0.58630000  0.00000000
O        O    0.16900000  0.27800000  0.08630000  0.00000000
O        O    0.10800000  0.79200000  0.66080000  0.00000000
O        O    0.10800000  0.20800000  0.16080000  0.00000000
O        O    0.13100000  0.73500000  0.74840000  0.00000000
O        O    0.13100000  0.26500000  0.24840000  0.00000000
O        O    0.10100000  0.50600000  0.69030000  0.00000000
O        O    0.10100000  0.49400000  0.19030000  0.00000000
O        O    0.20900000  0.77000000  0.83310000  0.00000000
O        O    0.20900000  0.23000000  0.33310000  0.00000000
O        O    0.03300000  0.77000000  0.80970000  0.00000000
O        O    0.03300000  0.23000000  0.30970000  0.00000000
O        O    0.12500000  0.00500000  0.78700000  0.00000000
O        O    0.12500000  0.99500000  0.28700000  0.00000000
O        O    0.34800000  0.71700000  0.89790000  0.00000000
O        O    0.34800000  0.28300000  0.39790000  0.00000000
O        O    0.19100000  0.78000000  0.91830000  0.00000000
O        O    0.19100000  0.22000000  0.41830000  0.00000000
O        O    0.21500000  0.50900000  0.87980000  0.00000000
O        O    0.21500000  0.49100000  0.37980000  0.00000000
O        O    0.51300000  0.77000000  0.94300000  0.00000000
O        O    0.51300000  0.23000000  0.44300000  0.00000000
O        O    0.37500000  0.79800000  0.98350000  0.00000000
O        O    0.37500000  0.20200000  0.48350000  0.00000000
O        O    0.68900000  0.76300000  0.94720000  0.00000000
O        O    0.68900000  0.23700000  0.44720000  0.00000000
O        O    0.62400000  0.73600000  0.02180000  0.00000000
O        O    0.62400000  0.26400000  0.52180000  0.00000000
O        O    0.60100000  0.50400000  0.96260000  0.00000000
O        O    0.60100000  0.49600000  0.46260000  0.00000000
O        O    0.85100000  0.79000000  0.92740000  0.00000000
O        O    0.85100000  0.21000000  0.42740000  0.00000000
O        O    0.83900000  0.72100000  0.01090000  0.00000000
O        O    0.83900000  0.27900000  0.51090000  0.00000000
O        O    0.89000000  0.74900000  0.84680000  0.00000000
O        O    0.89000000  0.25100000  0.34680000  0.00000000
O        O    0.79700000  0.00300000  0.97780000  0.00000000
O        O    0.79700000  0.99700000  0.47780000  0.00000000
O        O    0.88700000  0.50600000  0.90200000  0.00000000
O        O    0.88700000  0.49400000  0.40200000  0.00000000
O        O    0.87000000  0.74700000  0.75810000  0.00000000
O        O    0.87000000  0.25300000  0.25810000  0.00000000
O        O    0.91900000  0.01000000  0.80250000  0.00000000
O        O    0.91900000  0.99000000  0.30250000  0.00000000
O        O    0.79700000  0.80300000  0.67380000  0.00000000
O        O    0.79700000  0.19700000  0.17380000  0.00000000
O        O    0.96700000  0.70600000  0.69500000  0.00000000
O        O    0.96700000  0.29400000  0.19500000  0.00000000
O        O    0.83100000  0.51100000  0.70090000  0.00000000
O        O    0.83100000  0.48900000  0.20090000  0.00000000
O        O    0.66400000  0.77300000  0.60350000  0.00000000
O        O    0.66400000  0.22700000  0.10350000  0.00000000
O        O    0.83300000  0.71500000  0.59620000  0.00000000
O        O    0.83300000  0.28500000  0.09620000  0.00000000
O        O    0.48900000  0.75300000  0.57390000  0.00000000
O        O    0.48900000  0.24700000  0.07390000  0.00000000
O        O    0.59800000  0.25900000  0.01660000  0.00000000
O        O    0.59800000  0.74100000  0.51660000  0.00000000
O        O    0.59000000  0.49800000  0.07180000  0.00000000
O        O    0.59000000  0.50200000  0.57180000  0.00000000
O        O    0.31400000  0.71200000  0.55030000  0.00000000
O        O    0.31400000  0.28800000  0.05030000  0.00000000
O        O    0.38200000  0.00400000  0.04960000  0.00000000
O        O    0.38200000  0.99600000  0.54960000  0.00000000
O        O    0.18600000  0.50100000  0.52670000  0.00000000
O        O    0.18600000  0.49900000  0.02670000  0.00000000
O        O    0.11200000  0.00500000  0.59820000  0.00000000
O        O    0.11200000  0.99500000  0.09820000  0.00000000
O        O    0.85300000  0.27500000  0.01190000  0.00000000
O        O    0.85300000  0.72500000  0.51190000  0.00000000
O        O    0.99400000  0.77900000  0.57940000  0.00000000
O        O    0.99400000  0.22100000  0.07940000  0.00000000
O        O    0.92900000  0.50300000  0.06480000  0.00000000
O        O    0.92900000  0.49700000  0.56480000  0.00000000
O        O    0.01900000  0.71800000  0.92180000  0.00000000
O        O    0.01900000  0.28200000  0.42180000  0.00000000
O        O    0.14000000  0.78400000  0.99700000  0.00000000
O        O    0.14000000  0.21600000  0.49700000  0.00000000
O        O    0.14600000  0.29300000  0.58220000  0.00000000
O        O    0.14600000  0.70700000  0.08220000  0.00000000
O        O    0.09500000  0.22000000  0.65820000  0.00000000
O        O    0.09500000  0.78000000  0.15820000  0.00000000
O        O    0.14000000  0.27000000  0.74690000  0.00000000
O        O    0.14000000  0.73000000  0.24690000  0.00000000
O        O    0.21200000  0.24400000  0.83400000  0.00000000
O        O    0.21200000  0.75600000  0.33400000  0.00000000
O        O    0.03400000  0.25000000  0.80590000  0.00000000
O        O    0.03400000  0.75000000  0.30590000  0.00000000
O        O    0.34600000  0.30000000  0.90270000  0.00000000
O        O    0.34600000  0.70000000  0.40270000  0.00000000
O        O    0.18500000  0.24000000  0.91770000  0.00000000
O        O    0.18500000  0.76000000  0.41770000  0.00000000
O        O    0.51800000  0.24300000  0.93060000  0.00000000
O        O    0.51800000  0.75700000  0.43060000  0.00000000
O        O    0.40600000  0.78200000  0.48800000  0.00000000
O        O    0.40600000  0.21800000  0.98800000  0.00000000
O        O    0.40100000  0.00800000  0.92230000  0.00000000
O        O    0.40100000  0.99200000  0.42230000  0.00000000
O        O    0.69500000  0.25100000  0.95350000  0.00000000
O        O    0.69500000  0.74900000  0.45350000  0.00000000
O        O    0.84800000  0.22000000  0.92620000  0.00000000
O        O    0.84800000  0.78000000  0.42620000  0.00000000
O        O    0.90300000  0.26400000  0.85070000  0.00000000
O        O    0.90300000  0.73600000  0.35070000  0.00000000
O        O    0.86400000  0.27900000  0.76120000  0.00000000
O        O    0.86400000  0.72100000  0.26120000  0.00000000
O        O    0.79900000  0.21400000  0.67480000  0.00000000
O        O    0.79900000  0.78600000  0.17480000  0.00000000
O        O    0.96900000  0.31100000  0.70140000  0.00000000
O        O    0.96900000  0.68900000  0.20140000  0.00000000
O        O    0.65500000  0.76800000  0.10920000  0.00000000
O        O    0.65500000  0.23200000  0.60920000  0.00000000
O        O    0.81700000  0.69500000  0.09480000  0.00000000
O        O    0.81700000  0.30500000  0.59480000  0.00000000
O        O    0.78000000  0.00900000  0.60640000  0.00000000
O        O    0.78000000  0.99100000  0.10640000  0.00000000
O        O    0.48400000  0.74800000  0.06290000  0.00000000
O        O    0.48400000  0.25200000  0.56290000  0.00000000
O        O    0.30300000  0.73100000  0.05360000  0.00000000
O        O    0.30300000  0.26900000  0.55360000  0.00000000
O        O    0.97500000  0.79700000  0.07880000  0.00000000
O        O    0.97500000  0.20300000  0.57880000  0.00000000
O        O    0.15300000  0.78900000  0.49930000  0.00000000
O        O    0.15300000  0.21100000  0.99930000  0.00000000
O        O    0.08300000  0.00700000  0.93530000  0.00000000
O        O    0.08300000  0.99300000  0.43530000  0.00000000
O        O    0.01900000  0.29800000  0.93070000  0.00000000
O        O    0.01900000  0.70200000  0.43070000  0.00000000
