data_EMT

_cell_length_a  17.38640000
_cell_length_b  17.38640000
_cell_length_c  28.34590000
_cell_angle_alpha  90.00000000
_cell_angle_beta  90.00000000
_cell_angle_gamma  120.00000000


_symmetry_space_group_name_Hall ' P 1'
_symmetry_space_group_name_H-M  'P 1'
_symmetry_Int_Tables_number     1

loop_
_atom_site_label
_atom_site_type_symbol
_atom_site_fract_x
_atom_site_fract_y
_atom_site_fract_z
_atom_site_charge
Si       Si   0.27720000  0.90380000  0.51670000  0.00000000
Si       Si   0.90380000  0.62660000  0.01670000  0.00000000
Si       Si   0.27720000  0.37340000  0.98330000  0.00000000
Si       Si   0.37340000  0.27720000  0.48330000  0.00000000
Si       Si   0.62660000  0.90380000  0.98330000  0.00000000
Si       Si   0.37340000  0.09620000  0.48330000  0.00000000
Si       Si   0.90380000  0.27720000  0.01670000  0.00000000
Si       Si   0.62660000  0.72280000  0.98330000  0.00000000
Si       Si   0.27720000  0.90380000  0.98330000  0.00000000
Si       Si   0.72280000  0.62660000  0.01670000  0.00000000
Si       Si   0.09620000  0.37340000  0.98330000  0.00000000
Si       Si   0.72280000  0.09620000  0.01670000  0.00000000
Si       Si   0.37340000  0.27720000  0.01670000  0.00000000
Si       Si   0.62660000  0.90380000  0.51670000  0.00000000
Si       Si   0.37340000  0.09620000  0.01670000  0.00000000
Si       Si   0.90380000  0.27720000  0.48330000  0.00000000
Si       Si   0.09620000  0.37340000  0.51670000  0.00000000
Si       Si   0.27720000  0.37340000  0.51670000  0.00000000
Si       Si   0.09620000  0.72280000  0.51670000  0.00000000
Si       Si   0.72280000  0.09620000  0.48330000  0.00000000
Si       Si   0.09620000  0.72280000  0.98330000  0.00000000
Si       Si   0.72280000  0.62660000  0.48330000  0.00000000
Si       Si   0.90380000  0.62660000  0.48330000  0.00000000
Si       Si   0.62660000  0.72280000  0.51670000  0.00000000
Si       Si   0.39350000  0.96600000  0.60690000  0.00000000
Si       Si   0.96600000  0.57250000  0.10690000  0.00000000
Si       Si   0.39350000  0.42750000  0.89310000  0.00000000
Si       Si   0.42750000  0.39350000  0.39310000  0.00000000
Si       Si   0.57250000  0.96600000  0.89310000  0.00000000
Si       Si   0.42750000  0.03400000  0.39310000  0.00000000
Si       Si   0.96600000  0.39350000  0.10690000  0.00000000
Si       Si   0.57250000  0.60650000  0.89310000  0.00000000
Si       Si   0.39350000  0.96600000  0.89310000  0.00000000
Si       Si   0.60650000  0.57250000  0.10690000  0.00000000
Si       Si   0.03400000  0.42750000  0.89310000  0.00000000
Si       Si   0.60650000  0.03400000  0.10690000  0.00000000
Si       Si   0.42750000  0.39350000  0.10690000  0.00000000
Si       Si   0.57250000  0.96600000  0.60690000  0.00000000
Si       Si   0.42750000  0.03400000  0.10690000  0.00000000
Si       Si   0.96600000  0.39350000  0.39310000  0.00000000
Si       Si   0.03400000  0.42750000  0.60690000  0.00000000
Si       Si   0.39350000  0.42750000  0.60690000  0.00000000
Si       Si   0.03400000  0.60650000  0.60690000  0.00000000
Si       Si   0.60650000  0.03400000  0.39310000  0.00000000
Si       Si   0.03400000  0.60650000  0.89310000  0.00000000
Si       Si   0.60650000  0.57250000  0.39310000  0.00000000
Si       Si   0.96600000  0.57250000  0.39310000  0.00000000
Si       Si   0.57250000  0.60650000  0.60690000  0.00000000
Si       Si   0.33280000  0.84540000  0.42700000  0.00000000
Si       Si   0.84540000  0.51260000  0.92700000  0.00000000
Si       Si   0.33280000  0.48740000  0.07300000  0.00000000
Si       Si   0.48740000  0.33280000  0.57300000  0.00000000
Si       Si   0.51260000  0.84540000  0.07300000  0.00000000
Si       Si   0.48740000  0.15460000  0.57300000  0.00000000
Si       Si   0.84540000  0.33280000  0.92700000  0.00000000
Si       Si   0.51260000  0.66720000  0.07300000  0.00000000
Si       Si   0.33280000  0.84540000  0.07300000  0.00000000
Si       Si   0.66720000  0.51260000  0.92700000  0.00000000
Si       Si   0.15460000  0.48740000  0.07300000  0.00000000
Si       Si   0.66720000  0.15460000  0.92700000  0.00000000
Si       Si   0.48740000  0.33280000  0.92700000  0.00000000
Si       Si   0.51260000  0.84540000  0.42700000  0.00000000
Si       Si   0.48740000  0.15460000  0.92700000  0.00000000
Si       Si   0.84540000  0.33280000  0.57300000  0.00000000
Si       Si   0.15460000  0.48740000  0.42700000  0.00000000
Si       Si   0.33280000  0.48740000  0.42700000  0.00000000
Si       Si   0.15460000  0.66720000  0.42700000  0.00000000
Si       Si   0.66720000  0.15460000  0.57300000  0.00000000
Si       Si   0.15460000  0.66720000  0.07300000  0.00000000
Si       Si   0.66720000  0.51260000  0.57300000  0.00000000
Si       Si   0.84540000  0.51260000  0.57300000  0.00000000
Si       Si   0.51260000  0.66720000  0.42700000  0.00000000
Si       Si   0.33460000  0.84790000  0.69610000  0.00000000
Si       Si   0.84790000  0.51330000  0.19610000  0.00000000
Si       Si   0.33460000  0.48670000  0.80390000  0.00000000
Si       Si   0.48670000  0.33460000  0.30390000  0.00000000
Si       Si   0.51330000  0.84790000  0.80390000  0.00000000
Si       Si   0.48670000  0.15210000  0.30390000  0.00000000
Si       Si   0.84790000  0.33460000  0.19610000  0.00000000
Si       Si   0.51330000  0.66540000  0.80390000  0.00000000
Si       Si   0.33460000  0.84790000  0.80390000  0.00000000
Si       Si   0.66540000  0.51330000  0.19610000  0.00000000
Si       Si   0.15210000  0.48670000  0.80390000  0.00000000
Si       Si   0.66540000  0.15210000  0.19610000  0.00000000
Si       Si   0.48670000  0.33460000  0.19610000  0.00000000
Si       Si   0.51330000  0.84790000  0.69610000  0.00000000
Si       Si   0.48670000  0.15210000  0.19610000  0.00000000
Si       Si   0.84790000  0.33460000  0.30390000  0.00000000
Si       Si   0.15210000  0.48670000  0.69610000  0.00000000
Si       Si   0.33460000  0.48670000  0.69610000  0.00000000
Si       Si   0.15210000  0.66540000  0.69610000  0.00000000
Si       Si   0.66540000  0.15210000  0.30390000  0.00000000
Si       Si   0.15210000  0.66540000  0.80390000  0.00000000
Si       Si   0.66540000  0.51330000  0.30390000  0.00000000
Si       Si   0.84790000  0.51330000  0.30390000  0.00000000
Si       Si   0.51330000  0.66540000  0.69610000  0.00000000
O        O    0.32700000  0.87000000  0.48130000  0.00000000
O        O    0.87000000  0.54300000  0.98130000  0.00000000
O        O    0.32700000  0.45700000  0.01870000  0.00000000
O        O    0.45700000  0.32700000  0.51870000  0.00000000
O        O    0.54300000  0.87000000  0.01870000  0.00000000
O        O    0.45700000  0.13000000  0.51870000  0.00000000
O        O    0.87000000  0.32700000  0.98130000  0.00000000
O        O    0.54300000  0.67300000  0.01870000  0.00000000
O        O    0.32700000  0.87000000  0.01870000  0.00000000
O        O    0.67300000  0.54300000  0.98130000  0.00000000
O        O    0.13000000  0.45700000  0.01870000  0.00000000
O        O    0.67300000  0.13000000  0.98130000  0.00000000
O        O    0.45700000  0.32700000  0.98130000  0.00000000
O        O    0.54300000  0.87000000  0.48130000  0.00000000
O        O    0.45700000  0.13000000  0.98130000  0.00000000
O        O    0.87000000  0.32700000  0.51870000  0.00000000
O        O    0.13000000  0.45700000  0.48130000  0.00000000
O        O    0.32700000  0.45700000  0.48130000  0.00000000
O        O    0.13000000  0.67300000  0.48130000  0.00000000
O        O    0.67300000  0.13000000  0.51870000  0.00000000
O        O    0.13000000  0.67300000  0.01870000  0.00000000
O        O    0.67300000  0.54300000  0.51870000  0.00000000
O        O    0.87000000  0.54300000  0.51870000  0.00000000
O        O    0.54300000  0.67300000  0.48130000  0.00000000
O        O    0.29200000  0.00000000  0.50000000  0.00000000
O        O    0.70800000  0.70800000  0.00000000  0.00000000
O        O    0.00000000  0.29200000  0.00000000  0.00000000
O        O    0.70800000  0.00000000  0.00000000  0.00000000
O        O    0.29200000  0.29200000  0.00000000  0.00000000
O        O    0.29200000  0.00000000  0.00000000  0.00000000
O        O    0.00000000  0.29200000  0.50000000  0.00000000
O        O    0.29200000  0.29200000  0.50000000  0.00000000
O        O    0.70800000  0.00000000  0.50000000  0.00000000
O        O    0.00000000  0.70800000  0.00000000  0.00000000
O        O    0.00000000  0.70800000  0.50000000  0.00000000
O        O    0.70800000  0.70800000  0.50000000  0.00000000
O        O    0.34000000  0.17000000  0.48200000  0.00000000
O        O    0.66000000  0.83000000  0.98200000  0.00000000
O        O    0.83000000  0.66000000  0.01800000  0.00000000
O        O    0.17000000  0.34000000  0.98200000  0.00000000
O        O    0.83000000  0.17000000  0.01800000  0.00000000
O        O    0.34000000  0.17000000  0.01800000  0.00000000
O        O    0.17000000  0.34000000  0.51800000  0.00000000
O        O    0.17000000  0.83000000  0.51800000  0.00000000
O        O    0.83000000  0.17000000  0.48200000  0.00000000
O        O    0.17000000  0.83000000  0.98200000  0.00000000
O        O    0.83000000  0.66000000  0.48200000  0.00000000
O        O    0.66000000  0.83000000  0.51800000  0.00000000
O        O    0.31000000  0.90700000  0.57130000  0.00000000
O        O    0.90700000  0.59700000  0.07130000  0.00000000
O        O    0.31000000  0.40300000  0.92870000  0.00000000
O        O    0.40300000  0.31000000  0.42870000  0.00000000
O        O    0.59700000  0.90700000  0.92870000  0.00000000
O        O    0.40300000  0.09300000  0.42870000  0.00000000
O        O    0.90700000  0.31000000  0.07130000  0.00000000
O        O    0.59700000  0.69000000  0.92870000  0.00000000
O        O    0.31000000  0.90700000  0.92870000  0.00000000
O        O    0.69000000  0.59700000  0.07130000  0.00000000
O        O    0.09300000  0.40300000  0.92870000  0.00000000
O        O    0.69000000  0.09300000  0.07130000  0.00000000
O        O    0.40300000  0.31000000  0.07130000  0.00000000
O        O    0.59700000  0.90700000  0.57130000  0.00000000
O        O    0.40300000  0.09300000  0.07130000  0.00000000
O        O    0.90700000  0.31000000  0.42870000  0.00000000
O        O    0.09300000  0.40300000  0.57130000  0.00000000
O        O    0.31000000  0.40300000  0.57130000  0.00000000
O        O    0.09300000  0.69000000  0.57130000  0.00000000
O        O    0.69000000  0.09300000  0.42870000  0.00000000
O        O    0.09300000  0.69000000  0.92870000  0.00000000
O        O    0.69000000  0.59700000  0.42870000  0.00000000
O        O    0.90700000  0.59700000  0.42870000  0.00000000
O        O    0.59700000  0.69000000  0.57130000  0.00000000
O        O    0.35600000  0.93100000  0.66010000  0.00000000
O        O    0.93100000  0.57500000  0.16010000  0.00000000
O        O    0.35600000  0.42500000  0.83990000  0.00000000
O        O    0.42500000  0.35600000  0.33990000  0.00000000
O        O    0.57500000  0.93100000  0.83990000  0.00000000
O        O    0.42500000  0.06900000  0.33990000  0.00000000
O        O    0.93100000  0.35600000  0.16010000  0.00000000
O        O    0.57500000  0.64400000  0.83990000  0.00000000
O        O    0.35600000  0.93100000  0.83990000  0.00000000
O        O    0.64400000  0.57500000  0.16010000  0.00000000
O        O    0.06900000  0.42500000  0.83990000  0.00000000
O        O    0.64400000  0.06900000  0.16010000  0.00000000
O        O    0.42500000  0.35600000  0.16010000  0.00000000
O        O    0.57500000  0.93100000  0.66010000  0.00000000
O        O    0.42500000  0.06900000  0.16010000  0.00000000
O        O    0.93100000  0.35600000  0.33990000  0.00000000
O        O    0.06900000  0.42500000  0.66010000  0.00000000
O        O    0.35600000  0.42500000  0.66010000  0.00000000
O        O    0.06900000  0.64400000  0.66010000  0.00000000
O        O    0.64400000  0.06900000  0.33990000  0.00000000
O        O    0.06900000  0.64400000  0.83990000  0.00000000
O        O    0.64400000  0.57500000  0.33990000  0.00000000
O        O    0.93100000  0.57500000  0.33990000  0.00000000
O        O    0.57500000  0.64400000  0.66010000  0.00000000
O        O    0.42800000  0.07200000  0.61030000  0.00000000
O        O    0.07200000  0.64400000  0.11030000  0.00000000
O        O    0.42800000  0.35600000  0.88970000  0.00000000
O        O    0.35600000  0.42800000  0.38970000  0.00000000
O        O    0.64400000  0.07200000  0.88970000  0.00000000
O        O    0.35600000  0.92800000  0.38970000  0.00000000
O        O    0.07200000  0.42800000  0.11030000  0.00000000
O        O    0.64400000  0.57200000  0.88970000  0.00000000
O        O    0.42800000  0.07200000  0.88970000  0.00000000
O        O    0.57200000  0.64400000  0.11030000  0.00000000
O        O    0.92800000  0.35600000  0.88970000  0.00000000
O        O    0.57200000  0.92800000  0.11030000  0.00000000
O        O    0.35600000  0.42800000  0.11030000  0.00000000
O        O    0.64400000  0.07200000  0.61030000  0.00000000
O        O    0.35600000  0.92800000  0.11030000  0.00000000
O        O    0.07200000  0.42800000  0.38970000  0.00000000
O        O    0.92800000  0.35600000  0.61030000  0.00000000
O        O    0.42800000  0.35600000  0.61030000  0.00000000
O        O    0.92800000  0.57200000  0.61030000  0.00000000
O        O    0.57200000  0.92800000  0.38970000  0.00000000
O        O    0.92800000  0.57200000  0.88970000  0.00000000
O        O    0.57200000  0.64400000  0.38970000  0.00000000
O        O    0.07200000  0.64400000  0.38970000  0.00000000
O        O    0.64400000  0.57200000  0.61030000  0.00000000
O        O    0.94400000  0.47200000  0.09400000  0.00000000
O        O    0.47200000  0.52800000  0.90600000  0.00000000
O        O    0.47200000  0.94400000  0.90600000  0.00000000
O        O    0.52800000  0.47200000  0.09400000  0.00000000
O        O    0.47200000  0.94400000  0.59400000  0.00000000
O        O    0.52800000  0.05600000  0.09400000  0.00000000
O        O    0.05600000  0.52800000  0.59400000  0.00000000
O        O    0.52800000  0.05600000  0.40600000  0.00000000
O        O    0.05600000  0.52800000  0.90600000  0.00000000
O        O    0.52800000  0.47200000  0.40600000  0.00000000
O        O    0.94400000  0.47200000  0.40600000  0.00000000
O        O    0.47200000  0.52800000  0.59400000  0.00000000
O        O    0.47800000  0.23900000  0.59200000  0.00000000
O        O    0.52200000  0.76100000  0.09200000  0.00000000
O        O    0.76100000  0.52200000  0.90800000  0.00000000
O        O    0.23900000  0.47800000  0.09200000  0.00000000
O        O    0.76100000  0.23900000  0.90800000  0.00000000
O        O    0.47800000  0.23900000  0.90800000  0.00000000
O        O    0.23900000  0.47800000  0.40800000  0.00000000
O        O    0.23900000  0.76100000  0.40800000  0.00000000
O        O    0.76100000  0.23900000  0.59200000  0.00000000
O        O    0.23900000  0.76100000  0.09200000  0.00000000
O        O    0.76100000  0.52200000  0.59200000  0.00000000
O        O    0.52200000  0.76100000  0.40800000  0.00000000
O        O    0.81200000  0.40600000  0.92600000  0.00000000
O        O    0.40600000  0.59400000  0.07400000  0.00000000
O        O    0.40600000  0.81200000  0.07400000  0.00000000
O        O    0.59400000  0.40600000  0.92600000  0.00000000
O        O    0.40600000  0.81200000  0.42600000  0.00000000
O        O    0.59400000  0.18800000  0.92600000  0.00000000
O        O    0.18800000  0.59400000  0.42600000  0.00000000
O        O    0.59400000  0.18800000  0.57400000  0.00000000
O        O    0.18800000  0.59400000  0.07400000  0.00000000
O        O    0.59400000  0.40600000  0.57400000  0.00000000
O        O    0.81200000  0.40600000  0.57400000  0.00000000
O        O    0.40600000  0.59400000  0.42600000  0.00000000
O        O    0.47200000  0.23600000  0.31900000  0.00000000
O        O    0.52800000  0.76400000  0.81900000  0.00000000
O        O    0.76400000  0.52800000  0.18100000  0.00000000
O        O    0.23600000  0.47200000  0.81900000  0.00000000
O        O    0.76400000  0.23600000  0.18100000  0.00000000
O        O    0.47200000  0.23600000  0.18100000  0.00000000
O        O    0.23600000  0.47200000  0.68100000  0.00000000
O        O    0.23600000  0.76400000  0.68100000  0.00000000
O        O    0.76400000  0.23600000  0.31900000  0.00000000
O        O    0.23600000  0.76400000  0.81900000  0.00000000
O        O    0.76400000  0.52800000  0.31900000  0.00000000
O        O    0.52800000  0.76400000  0.68100000  0.00000000
O        O    0.81820000  0.40920000  0.18700000  0.00000000
O        O    0.40900000  0.59080000  0.81300000  0.00000000
O        O    0.40920000  0.81820000  0.81300000  0.00000000
O        O    0.59100000  0.40920000  0.18700000  0.00000000
O        O    0.40900000  0.81820000  0.68700000  0.00000000
O        O    0.59100000  0.18180000  0.18700000  0.00000000
O        O    0.18180000  0.59080000  0.68700000  0.00000000
O        O    0.59080000  0.18180000  0.31300000  0.00000000
O        O    0.18180000  0.59080000  0.81300000  0.00000000
O        O    0.59080000  0.40900000  0.31300000  0.00000000
O        O    0.81820000  0.40900000  0.31300000  0.00000000
O        O    0.40900000  0.59080000  0.68700000  0.00000000
O        O    0.33600000  0.88300000  0.75000000  0.00000000
O        O    0.45300000  0.33600000  0.25000000  0.00000000
O        O    0.54700000  0.88300000  0.75000000  0.00000000
O        O    0.45300000  0.11700000  0.25000000  0.00000000
O        O    0.88300000  0.33600000  0.25000000  0.00000000
O        O    0.11700000  0.45300000  0.75000000  0.00000000
O        O    0.33600000  0.45300000  0.75000000  0.00000000
O        O    0.66400000  0.11700000  0.25000000  0.00000000
O        O    0.11700000  0.66400000  0.75000000  0.00000000
O        O    0.66400000  0.54700000  0.25000000  0.00000000
O        O    0.88300000  0.54700000  0.25000000  0.00000000
O        O    0.54700000  0.66400000  0.75000000  0.00000000
