data_FAU_SI

_cell_length_a  17.15271346
_cell_length_b  17.15271346
_cell_length_c  17.15271346
_cell_angle_alpha  60.00000000
_cell_angle_beta  60.00000000
_cell_angle_gamma  60.00000000


_symmetry_space_group_name_Hall ' P 1'
_symmetry_space_group_name_H-M  'P 1'
_symmetry_Int_Tables_number     1

loop_
_atom_site_label
_atom_site_type_symbol
_atom_site_fract_x
_atom_site_fract_y
_atom_site_fract_z
_atom_site_charge
Si       Si   0.60727000  0.96451000  0.78489000  0.00000000
Si       Si   0.78489000  0.14333000  0.96451000  0.00000000
Si       Si   0.96451000  0.14333000  0.78489000  0.00000000
Si       Si   0.96451000  0.60727000  0.78489000  0.00000000
Si       Si   0.14333000  0.78489000  0.96451000  0.00000000
Si       Si   0.96451000  0.60727000  0.14333000  0.00000000
Si       Si   0.85667000  0.21511000  0.39273000  0.00000000
Si       Si   0.85667000  0.03549000  0.39273000  0.00000000
Si       Si   0.21511000  0.85667000  0.39273000  0.00000000
Si       Si   0.03549000  0.39273000  0.85667000  0.00000000
Si       Si   0.14333000  0.96451000  0.78489000  0.00000000
Si       Si   0.78489000  0.60727000  0.96451000  0.00000000
Si       Si   0.14333000  0.60727000  0.78489000  0.00000000
Si       Si   0.85667000  0.03549000  0.21511000  0.00000000
Si       Si   0.03549000  0.21511000  0.85667000  0.00000000
Si       Si   0.21511000  0.03549000  0.85667000  0.00000000
Si       Si   0.39273000  0.21511000  0.85667000  0.00000000
Si       Si   0.78489000  0.14333000  0.60727000  0.00000000
Si       Si   0.78489000  0.96451000  0.14333000  0.00000000
Si       Si   0.39273000  0.85667000  0.21511000  0.00000000
Si       Si   0.85667000  0.21511000  0.03549000  0.00000000
Si       Si   0.96451000  0.14333000  0.60727000  0.00000000
Si       Si   0.21511000  0.39273000  0.85667000  0.00000000
Si       Si   0.21511000  0.39273000  0.03549000  0.00000000
Si       Si   0.03549000  0.85667000  0.21511000  0.00000000
Si       Si   0.39273000  0.03549000  0.85667000  0.00000000
Si       Si   0.14333000  0.60727000  0.96451000  0.00000000
Si       Si   0.14333000  0.96451000  0.60727000  0.00000000
Si       Si   0.60727000  0.78489000  0.14333000  0.00000000
Si       Si   0.96451000  0.78489000  0.60727000  0.00000000
Si       Si   0.60727000  0.96451000  0.14333000  0.00000000
Si       Si   0.60727000  0.14333000  0.78489000  0.00000000
Si       Si   0.39273000  0.85667000  0.03549000  0.00000000
Si       Si   0.60727000  0.14333000  0.96451000  0.00000000
Si       Si   0.96451000  0.78489000  0.14333000  0.00000000
Si       Si   0.39273000  0.03549000  0.21511000  0.00000000
Si       Si   0.39273000  0.21511000  0.03549000  0.00000000
Si       Si   0.21511000  0.03549000  0.39273000  0.00000000
Si       Si   0.14333000  0.78489000  0.60727000  0.00000000
Si       Si   0.85667000  0.39273000  0.21511000  0.00000000
Si       Si   0.21511000  0.85667000  0.03549000  0.00000000
Si       Si   0.60727000  0.78489000  0.96451000  0.00000000
Si       Si   0.78489000  0.60727000  0.14333000  0.00000000
Si       Si   0.03549000  0.85667000  0.39273000  0.00000000
Si       Si   0.03549000  0.39273000  0.21511000  0.00000000
Si       Si   0.78489000  0.96451000  0.60727000  0.00000000
Si       Si   0.85667000  0.39273000  0.03549000  0.00000000
Si       Si   0.03549000  0.21511000  0.39273000  0.00000000
O        O    0.21246000  0.78754000  0.00000000  0.00000000
O        O    0.78754000  0.00000000  0.21246000  0.00000000
O        O    0.00000000  0.78754000  0.21246000  0.00000000
O        O    0.50000000  0.21246000  0.00000000  0.00000000
O        O    0.21246000  0.78754000  0.50000000  0.00000000
O        O    0.00000000  0.50000000  0.21246000  0.00000000
O        O    0.78754000  0.21246000  0.00000000  0.00000000
O        O    0.78754000  0.50000000  0.21246000  0.00000000
O        O    0.50000000  0.78754000  0.21246000  0.00000000
O        O    0.00000000  0.78754000  0.50000000  0.00000000
O        O    0.21246000  0.50000000  0.00000000  0.00000000
O        O    0.50000000  0.00000000  0.21246000  0.00000000
O        O    1.00000000  0.50000000  0.78754000  0.00000000
O        O    0.00000000  0.21246000  0.78754000  0.00000000
O        O    0.50000000  0.00000000  0.78754000  0.00000000
O        O    0.50000000  0.21246000  0.78754000  0.00000000
O        O    0.21246000  0.00000000  0.50000000  0.00000000
O        O    0.21246000  1.00000000  0.78754000  0.00000000
O        O    0.78754000  0.50000000  0.00000000  0.00000000
O        O    0.50000000  0.78754000  0.00000000  0.00000000
O        O    0.78754000  0.21246000  0.50000000  0.00000000
O        O    0.00000000  0.21246000  0.50000000  0.00000000
O        O    0.21246000  0.50000000  0.78754000  0.00000000
O        O    0.78754000  1.00000000  0.50000000  0.00000000
O        O    0.85934000  0.85934000  0.14712000  0.00000000
O        O    0.14712000  0.63420000  0.85934000  0.00000000
O        O    0.14066000  0.14066000  0.36580000  0.00000000
O        O    0.14066000  0.85288000  0.14066000  0.00000000
O        O    0.36580000  0.14066000  0.14066000  0.00000000
O        O    0.85288000  0.14066000  0.14066000  0.00000000
O        O    0.63420000  0.14712000  0.85934000  0.00000000
O        O    0.63420000  0.85934000  0.85934000  0.00000000
O        O    0.36580000  0.85288000  0.14066000  0.00000000
O        O    0.85934000  0.14712000  0.85934000  0.00000000
O        O    0.14066000  0.85288000  0.36580000  0.00000000
O        O    0.85934000  0.63420000  0.14712000  0.00000000
O        O    0.14066000  0.36580000  0.14066000  0.00000000
O        O    0.14066000  0.14066000  0.85288000  0.00000000
O        O    0.63420000  0.85934000  0.14712000  0.00000000
O        O    0.85934000  0.63420000  0.85934000  0.00000000
O        O    0.14712000  0.85934000  0.63420000  0.00000000
O        O    0.36580000  0.14066000  0.85288000  0.00000000
O        O    0.14712000  0.85934000  0.85934000  0.00000000
O        O    0.85288000  0.36580000  0.14066000  0.00000000
O        O    0.85934000  0.85934000  0.63420000  0.00000000
O        O    0.85934000  0.14712000  0.63420000  0.00000000
O        O    0.14066000  0.36580000  0.85288000  0.00000000
O        O    0.85288000  0.14066000  0.36580000  0.00000000
O        O    0.03577000  0.03577000  0.81283000  0.00000000
O        O    0.81283000  0.61563000  0.03577000  0.00000000
O        O    0.96423000  0.96423000  0.38437000  0.00000000
O        O    0.96423000  0.18717000  0.96423000  0.00000000
O        O    0.38437000  0.96423000  0.96423000  0.00000000
O        O    0.18717000  0.96423000  0.96423000  0.00000000
O        O    0.61563000  0.81283000  0.03577000  0.00000000
O        O    0.61563000  0.03577000  0.03577000  0.00000000
O        O    0.38437000  0.18717000  0.96423000  0.00000000
O        O    0.03577000  0.81283000  0.03577000  0.00000000
O        O    0.96423000  0.18717000  0.38437000  0.00000000
O        O    0.03577000  0.61563000  0.81283000  0.00000000
O        O    0.96423000  0.38437000  0.96423000  0.00000000
O        O    0.96423000  0.96423000  0.18717000  0.00000000
O        O    0.61563000  0.03577000  0.81283000  0.00000000
O        O    0.03577000  0.61563000  0.03577000  0.00000000
O        O    0.81283000  0.03577000  0.61563000  0.00000000
O        O    0.38437000  0.96423000  0.18717000  0.00000000
O        O    0.81283000  0.03577000  0.03577000  0.00000000
O        O    0.18717000  0.38437000  0.96423000  0.00000000
O        O    0.03577000  0.03577000  0.61563000  0.00000000
O        O    0.03577000  0.81283000  0.61563000  0.00000000
O        O    0.96423000  0.38437000  0.18717000  0.00000000
O        O    0.18717000  0.96423000  0.38437000  0.00000000
O        O    0.67885000  0.67885000  0.17989000  0.00000000
O        O    0.17989000  0.96241000  0.67885000  0.00000000
O        O    0.32115000  0.32115000  0.03759000  0.00000000
O        O    0.32115000  0.82011000  0.32115000  0.00000000
O        O    0.03759000  0.32115000  0.32115000  0.00000000
O        O    0.82011000  0.32115000  0.32115000  0.00000000
O        O    0.96241000  0.17989000  0.67885000  0.00000000
O        O    0.96241000  0.67885000  0.67885000  0.00000000
O        O    0.03759000  0.82011000  0.32115000  0.00000000
O        O    0.67885000  0.17989000  0.67885000  0.00000000
O        O    0.32115000  0.82011000  0.03759000  0.00000000
O        O    0.67885000  0.96241000  0.17989000  0.00000000
O        O    0.32115000  0.03759000  0.32115000  0.00000000
O        O    0.32115000  0.32115000  0.82011000  0.00000000
O        O    0.96241000  0.67885000  0.17989000  0.00000000
O        O    0.67885000  0.96241000  0.67885000  0.00000000
O        O    0.17989000  0.67885000  0.96241000  0.00000000
O        O    0.03759000  0.32115000  0.82011000  0.00000000
O        O    0.17989000  0.67885000  0.67885000  0.00000000
O        O    0.82011000  0.03759000  0.32115000  0.00000000
O        O    0.67885000  0.67885000  0.96241000  0.00000000
O        O    0.67885000  0.17989000  0.96241000  0.00000000
O        O    0.32115000  0.03759000  0.82011000  0.00000000
O        O    0.82011000  0.32115000  0.03759000  0.00000000
