data_FER

_cell_length_a  7.41971000
_cell_length_b  14.07020000
_cell_length_c  18.72020000
_cell_angle_alpha  90.00000000
_cell_angle_beta  90.00000000
_cell_angle_gamma  90.00000000


_symmetry_space_group_name_Hall ' P 1'
_symmetry_space_group_name_H-M  'P 1'
_symmetry_Int_Tables_number     1

loop_
_atom_site_label
_atom_site_type_symbol
_atom_site_fract_x
_atom_site_fract_y
_atom_site_fract_z
_atom_site_charge
Si       Si   0.00000000  0.00000000  0.84538000  0.00000000
Si       Si   0.50000000  0.50000000  0.65462000  0.00000000
Si       Si   0.00000000  0.00000000  0.15462000  0.00000000
Si       Si   0.50000000  0.50000000  0.34538000  0.00000000
Si       Si   0.79050000  0.50120000  0.22561000  0.00000000
Si       Si   0.70950000  0.00120000  0.72561000  0.00000000
Si       Si   0.20950000  0.49880000  0.77439000  0.00000000
Si       Si   0.29050000  0.99880000  0.72561000  0.00000000
Si       Si   0.29050000  0.99880000  0.27439000  0.00000000
Si       Si   0.79050000  0.50120000  0.77439000  0.00000000
Si       Si   0.70950000  0.00120000  0.27439000  0.00000000
Si       Si   0.20950000  0.49880000  0.22561000  0.00000000
Si       Si   0.50370000  0.30010000  0.41627000  0.00000000
Si       Si   0.99630000  0.80010000  0.91627000  0.00000000
Si       Si   0.49630000  0.69990000  0.58373000  0.00000000
Si       Si   0.00370000  0.19990000  0.91627000  0.00000000
Si       Si   0.00370000  0.19990000  0.08373000  0.00000000
Si       Si   0.50370000  0.30010000  0.58373000  0.00000000
Si       Si   0.99630000  0.80010000  0.08373000  0.00000000
Si       Si   0.49630000  0.69990000  0.41627000  0.00000000
Si       Si   0.72550000  0.29710000  0.16850000  0.00000000
Si       Si   0.77450000  0.79710000  0.66850000  0.00000000
Si       Si   0.27450000  0.70290000  0.83150000  0.00000000
Si       Si   0.22550000  0.20290000  0.66850000  0.00000000
Si       Si   0.22550000  0.20290000  0.33150000  0.00000000
Si       Si   0.72550000  0.29710000  0.83150000  0.00000000
Si       Si   0.77450000  0.79710000  0.33150000  0.00000000
Si       Si   0.27450000  0.70290000  0.16850000  0.00000000
Si       Si   0.68940000  0.70500000  0.81800000  0.00000000
Si       Si   0.81060000  0.20500000  0.31800000  0.00000000
Si       Si   0.31060000  0.29500000  0.18200000  0.00000000
Si       Si   0.18940000  0.79500000  0.31800000  0.00000000
Si       Si   0.18940000  0.79500000  0.68200000  0.00000000
Si       Si   0.68940000  0.70500000  0.18200000  0.00000000
Si       Si   0.81060000  0.20500000  0.68200000  0.00000000
Si       Si   0.31060000  0.29500000  0.81800000  0.00000000
O        O    0.50000000  1.00000000  0.75210000  0.00000000
O        O    0.00000000  0.50000000  0.74790000  0.00000000
O        O    0.50000000  1.00000000  0.24790000  0.00000000
O        O    0.00000000  0.50000000  0.25210000  0.00000000
O        O    0.67880000  0.49010000  0.29730000  0.00000000
O        O    0.82120000  0.99010000  0.79730000  0.00000000
O        O    0.32120000  0.50990000  0.70270000  0.00000000
O        O    0.17880000  0.00990000  0.79730000  0.00000000
O        O    0.17880000  0.00990000  0.20270000  0.00000000
O        O    0.67880000  0.49010000  0.70270000  0.00000000
O        O    0.82120000  0.99010000  0.20270000  0.00000000
O        O    0.32120000  0.50990000  0.29730000  0.00000000
O        O    0.50160000  0.41010000  0.39610000  0.00000000
O        O    0.99840000  0.91010000  0.89610000  0.00000000
O        O    0.49840000  0.58990000  0.60390000  0.00000000
O        O    0.00160000  0.08990000  0.89610000  0.00000000
O        O    0.00160000  0.08990000  0.10390000  0.00000000
O        O    0.50160000  0.41010000  0.60390000  0.00000000
O        O    0.99840000  0.91010000  0.10390000  0.00000000
O        O    0.49840000  0.58990000  0.39610000  0.00000000
O        O    0.47980000  0.71960000  0.84400000  0.00000000
O        O    0.02020000  0.21960000  0.34400000  0.00000000
O        O    0.52020000  0.28040000  0.15600000  0.00000000
O        O    0.97980000  0.78040000  0.34400000  0.00000000
O        O    0.97980000  0.78040000  0.65600000  0.00000000
O        O    0.47980000  0.71960000  0.15600000  0.00000000
O        O    0.02020000  0.21960000  0.65600000  0.00000000
O        O    0.52020000  0.28040000  0.84400000  0.00000000
O        O    0.03770000  0.20900000  1.00000000  0.00000000
O        O    0.53770000  0.29100000  0.50000000  0.00000000
O        O    0.96230000  0.79100000  1.00000000  0.00000000
O        O    0.46230000  0.70900000  0.50000000  0.00000000
O        O    0.78510000  0.25060000  0.24200000  0.00000000
O        O    0.71490000  0.75060000  0.74200000  0.00000000
O        O    0.21490000  0.74940000  0.75800000  0.00000000
O        O    0.28510000  0.24940000  0.74200000  0.00000000
O        O    0.28510000  0.24940000  0.25800000  0.00000000
O        O    0.78510000  0.25060000  0.75800000  0.00000000
O        O    0.71490000  0.75060000  0.25800000  0.00000000
O        O    0.21490000  0.74940000  0.24200000  0.00000000
O        O    0.68290000  0.25970000  0.37520000  0.00000000
O        O    0.81710000  0.75970000  0.87520000  0.00000000
O        O    0.31710000  0.74030000  0.62480000  0.00000000
O        O    0.18290000  0.24030000  0.87520000  0.00000000
O        O    0.18290000  0.24030000  0.12480000  0.00000000
O        O    0.68290000  0.25970000  0.62480000  0.00000000
O        O    0.81710000  0.75970000  0.12480000  0.00000000
O        O    0.31710000  0.74030000  0.37520000  0.00000000
O        O    0.66750000  0.76070000  0.60060000  0.00000000
O        O    0.83250000  0.26070000  0.10060000  0.00000000
O        O    0.33250000  0.23930000  0.39940000  0.00000000
O        O    0.16750000  0.73930000  0.10060000  0.00000000
O        O    0.16750000  0.73930000  0.89940000  0.00000000
O        O    0.66750000  0.76070000  0.39940000  0.00000000
O        O    0.83250000  0.26070000  0.89940000  0.00000000
O        O    0.33250000  0.23930000  0.60060000  0.00000000
O        O    0.74620000  0.41210000  0.17090000  0.00000000
O        O    0.75380000  0.91210000  0.67090000  0.00000000
O        O    0.25380000  0.58790000  0.82910000  0.00000000
O        O    0.24620000  0.08790000  0.67090000  0.00000000
O        O    0.24620000  0.08790000  0.32910000  0.00000000
O        O    0.74620000  0.41210000  0.82910000  0.00000000
O        O    0.75380000  0.91210000  0.32910000  0.00000000
O        O    0.25380000  0.58790000  0.17090000  0.00000000
O        O    0.74770000  0.59600000  0.81540000  0.00000000
O        O    0.75230000  0.09600000  0.31540000  0.00000000
O        O    0.25230000  0.40400000  0.18460000  0.00000000
O        O    0.24770000  0.90400000  0.31540000  0.00000000
O        O    0.24770000  0.90400000  0.68460000  0.00000000
O        O    0.74770000  0.59600000  0.18460000  0.00000000
O        O    0.75230000  0.09600000  0.68460000  0.00000000
O        O    0.25230000  0.40400000  0.81540000  0.00000000
