data_ITQ-3

_cell_length_a  20.62200000
_cell_length_b  9.72420000
_cell_length_c  19.62300000
_cell_angle_alpha  90.00000000
_cell_angle_beta  90.00000000
_cell_angle_gamma  90.00000000


_symmetry_space_group_name_Hall ' P 1'
_symmetry_space_group_name_H-M  'P 1'
_symmetry_Int_Tables_number     1

loop_
_atom_site_label
_atom_site_type_symbol
_atom_site_fract_x
_atom_site_fract_y
_atom_site_fract_z
_atom_site_charge
Si       Si   0.17982000  0.45700000  0.17011000  2.05000000
Si       Si   0.17982000  0.54300000  0.67011000  2.05000000
Si       Si   0.67982000  0.04300000  0.82989000  2.05000000
Si       Si   0.32018000  0.04300000  0.67011000  2.05000000
Si       Si   0.17982000  0.45700000  0.32989000  2.05000000
Si       Si   0.32018000  0.95700000  0.32989000  2.05000000
Si       Si   0.82018000  0.54300000  0.82989000  2.05000000
Si       Si   0.67982000  0.95700000  0.32989000  2.05000000
Si       Si   0.17982000  0.54300000  0.82989000  2.05000000
Si       Si   0.82018000  0.54300000  0.67011000  2.05000000
Si       Si   0.82018000  0.45700000  0.32989000  2.05000000
Si       Si   0.67982000  0.04300000  0.67011000  2.05000000
Si       Si   0.32018000  0.95700000  0.17011000  2.05000000
Si       Si   0.32018000  0.04300000  0.82989000  2.05000000
Si       Si   0.67982000  0.95700000  0.17011000  2.05000000
Si       Si   0.82018000  0.45700000  0.17011000  2.05000000
Si       Si   0.42439000  0.90670000  0.05610000  2.05000000
Si       Si   0.42439000  0.09330000  0.55610000  2.05000000
Si       Si   0.92439000  0.59330000  0.94390000  2.05000000
Si       Si   0.07561000  0.59330000  0.55610000  2.05000000
Si       Si   0.42439000  0.90670000  0.44390000  2.05000000
Si       Si   0.07561000  0.40670000  0.44390000  2.05000000
Si       Si   0.57561000  0.09330000  0.94390000  2.05000000
Si       Si   0.92439000  0.40670000  0.44390000  2.05000000
Si       Si   0.42439000  0.09330000  0.94390000  2.05000000
Si       Si   0.57561000  0.09330000  0.55610000  2.05000000
Si       Si   0.57561000  0.90670000  0.44390000  2.05000000
Si       Si   0.92439000  0.59330000  0.55610000  2.05000000
Si       Si   0.07561000  0.40670000  0.05610000  2.05000000
Si       Si   0.07561000  0.59330000  0.94390000  2.05000000
Si       Si   0.92439000  0.40670000  0.05610000  2.05000000
Si       Si   0.57561000  0.90670000  0.05610000  2.05000000
Si       Si   0.23590000  0.72550000  0.11210000  2.05000000
Si       Si   0.23590000  0.27450000  0.61210000  2.05000000
Si       Si   0.73590000  0.77450000  0.88790000  2.05000000
Si       Si   0.26410000  0.77450000  0.61210000  2.05000000
Si       Si   0.23590000  0.72550000  0.38790000  2.05000000
Si       Si   0.26410000  0.22550000  0.38790000  2.05000000
Si       Si   0.76410000  0.27450000  0.88790000  2.05000000
Si       Si   0.73590000  0.22550000  0.38790000  2.05000000
Si       Si   0.23590000  0.27450000  0.88790000  2.05000000
Si       Si   0.76410000  0.27450000  0.61210000  2.05000000
Si       Si   0.76410000  0.72550000  0.38790000  2.05000000
Si       Si   0.73590000  0.77450000  0.61210000  2.05000000
Si       Si   0.26410000  0.22550000  0.11210000  2.05000000
Si       Si   0.26410000  0.77450000  0.88790000  2.05000000
Si       Si   0.73590000  0.22550000  0.11210000  2.05000000
Si       Si   0.76410000  0.72550000  0.11210000  2.05000000
Si       Si   0.34698000  0.65510000  0.00360000  2.05000000
Si       Si   0.34698000  0.34490000  0.50360000  2.05000000
Si       Si   0.84698000  0.84490000  0.99640000  2.05000000
Si       Si   0.15302000  0.84490000  0.50360000  2.05000000
Si       Si   0.34698000  0.65510000  0.49640000  2.05000000
Si       Si   0.15302000  0.15510000  0.49640000  2.05000000
Si       Si   0.65302000  0.34490000  0.99640000  2.05000000
Si       Si   0.84698000  0.15510000  0.49640000  2.05000000
Si       Si   0.34698000  0.34490000  0.99640000  2.05000000
Si       Si   0.65302000  0.34490000  0.50360000  2.05000000
Si       Si   0.65302000  0.65510000  0.49640000  2.05000000
Si       Si   0.84698000  0.84490000  0.50360000  2.05000000
Si       Si   0.15302000  0.15510000  0.00360000  2.05000000
Si       Si   0.15302000  0.84490000  0.99640000  2.05000000
Si       Si   0.84698000  0.15510000  0.00360000  2.05000000
Si       Si   0.65302000  0.65510000  0.00360000  2.05000000
O        O    0.15730000  0.44190000  0.25000000 -1.02500000
O        O    0.15730000  0.55810000  0.75000000 -1.02500000
O        O    0.84270000  0.55810000  0.75000000 -1.02500000
O        O    0.65730000  0.05810000  0.75000000 -1.02500000
O        O    0.34270000  0.94190000  0.25000000 -1.02500000
O        O    0.34270000  0.05810000  0.75000000 -1.02500000
O        O    0.65730000  0.94190000  0.25000000 -1.02500000
O        O    0.84270000  0.44190000  0.25000000 -1.02500000
O        O    0.23250000  0.35150000  0.14910000 -1.02500000
O        O    0.23250000  0.64850000  0.64910000 -1.02500000
O        O    0.73250000  0.14850000  0.85090000 -1.02500000
O        O    0.26750000  0.14850000  0.64910000 -1.02500000
O        O    0.23250000  0.35150000  0.35090000 -1.02500000
O        O    0.26750000  0.85150000  0.35090000 -1.02500000
O        O    0.76750000  0.64850000  0.85090000 -1.02500000
O        O    0.73250000  0.85150000  0.35090000 -1.02500000
O        O    0.23250000  0.64850000  0.85090000 -1.02500000
O        O    0.76750000  0.64850000  0.64910000 -1.02500000
O        O    0.76750000  0.35150000  0.35090000 -1.02500000
O        O    0.73250000  0.14850000  0.64910000 -1.02500000
O        O    0.26750000  0.85150000  0.14910000 -1.02500000
O        O    0.26750000  0.14850000  0.85090000 -1.02500000
O        O    0.73250000  0.85150000  0.14910000 -1.02500000
O        O    0.76750000  0.35150000  0.14910000 -1.02500000
O        O    0.40040000  0.00000000  0.50000000 -1.02500000
O        O    0.09960000  0.50000000  0.50000000 -1.02500000
O        O    0.40040000  0.00000000  0.00000000 -1.02500000
O        O    0.59960000  0.00000000  0.50000000 -1.02500000
O        O    0.90040000  0.50000000  0.50000000 -1.02500000
O        O    0.09960000  0.50000000  0.00000000 -1.02500000
O        O    0.90040000  0.50000000  0.00000000 -1.02500000
O        O    0.59960000  0.00000000  0.00000000 -1.02500000
O        O    0.40220000  0.75160000  0.02870000 -1.02500000
O        O    0.40220000  0.24840000  0.52870000 -1.02500000
O        O    0.90220000  0.74840000  0.97130000 -1.02500000
O        O    0.09780000  0.74840000  0.52870000 -1.02500000
O        O    0.40220000  0.75160000  0.47130000 -1.02500000
O        O    0.09780000  0.25160000  0.47130000 -1.02500000
O        O    0.59780000  0.24840000  0.97130000 -1.02500000
O        O    0.90220000  0.25160000  0.47130000 -1.02500000
O        O    0.40220000  0.24840000  0.97130000 -1.02500000
O        O    0.59780000  0.24840000  0.52870000 -1.02500000
O        O    0.59780000  0.75160000  0.47130000 -1.02500000
O        O    0.90220000  0.74840000  0.52870000 -1.02500000
O        O    0.09780000  0.25160000  0.02870000 -1.02500000
O        O    0.09780000  0.74840000  0.97130000 -1.02500000
O        O    0.90220000  0.25160000  0.02870000 -1.02500000
O        O    0.59780000  0.75160000  0.02870000 -1.02500000
O        O    0.00000000  0.41050000  0.42820000 -1.02500000
O        O    0.50000000  0.08950000  0.92820000 -1.02500000
O        O    0.50000000  0.08950000  0.57180000 -1.02500000
O        O    0.50000000  0.91050000  0.42820000 -1.02500000
O        O    0.00000000  0.58950000  0.57180000 -1.02500000
O        O    0.00000000  0.58950000  0.92820000 -1.02500000
O        O    0.00000000  0.41050000  0.07180000 -1.02500000
O        O    0.50000000  0.91050000  0.07180000 -1.02500000
O        O    0.28520000  0.65870000  0.05690000 -1.02500000
O        O    0.28520000  0.34130000  0.55690000 -1.02500000
O        O    0.78520000  0.84130000  0.94310000 -1.02500000
O        O    0.21480000  0.84130000  0.55690000 -1.02500000
O        O    0.28520000  0.65870000  0.44310000 -1.02500000
O        O    0.21480000  0.15870000  0.44310000 -1.02500000
O        O    0.71480000  0.34130000  0.94310000 -1.02500000
O        O    0.78520000  0.15870000  0.44310000 -1.02500000
O        O    0.28520000  0.34130000  0.94310000 -1.02500000
O        O    0.71480000  0.34130000  0.55690000 -1.02500000
O        O    0.71480000  0.65870000  0.44310000 -1.02500000
O        O    0.78520000  0.84130000  0.55690000 -1.02500000
O        O    0.21480000  0.15870000  0.05690000 -1.02500000
O        O    0.21480000  0.84130000  0.94310000 -1.02500000
O        O    0.78520000  0.15870000  0.05690000 -1.02500000
O        O    0.71480000  0.65870000  0.05690000 -1.02500000
O        O    0.11300000  0.43720000  0.12880000 -1.02500000
O        O    0.11300000  0.56280000  0.62880000 -1.02500000
O        O    0.61300000  0.06280000  0.87120000 -1.02500000
O        O    0.38700000  0.06280000  0.62880000 -1.02500000
O        O    0.11300000  0.43720000  0.37120000 -1.02500000
O        O    0.38700000  0.93720000  0.37120000 -1.02500000
O        O    0.88700000  0.56280000  0.87120000 -1.02500000
O        O    0.61300000  0.93720000  0.37120000 -1.02500000
O        O    0.11300000  0.56280000  0.87120000 -1.02500000
O        O    0.88700000  0.56280000  0.62880000 -1.02500000
O        O    0.88700000  0.43720000  0.37120000 -1.02500000
O        O    0.61300000  0.06280000  0.62880000 -1.02500000
O        O    0.38700000  0.93720000  0.12880000 -1.02500000
O        O    0.38700000  0.06280000  0.87120000 -1.02500000
O        O    0.61300000  0.93720000  0.12880000 -1.02500000
O        O    0.88700000  0.43720000  0.12880000 -1.02500000
O        O    0.20870000  0.60930000  0.16250000 -1.02500000
O        O    0.20870000  0.39070000  0.66250000 -1.02500000
O        O    0.70870000  0.89070000  0.83750000 -1.02500000
O        O    0.29130000  0.89070000  0.66250000 -1.02500000
O        O    0.20870000  0.60930000  0.33750000 -1.02500000
O        O    0.29130000  0.10930000  0.33750000 -1.02500000
O        O    0.79130000  0.39070000  0.83750000 -1.02500000
O        O    0.70870000  0.10930000  0.33750000 -1.02500000
O        O    0.20870000  0.39070000  0.83750000 -1.02500000
O        O    0.79130000  0.39070000  0.66250000 -1.02500000
O        O    0.79130000  0.60930000  0.33750000 -1.02500000
O        O    0.70870000  0.89070000  0.66250000 -1.02500000
O        O    0.29130000  0.10930000  0.16250000 -1.02500000
O        O    0.29130000  0.89070000  0.83750000 -1.02500000
O        O    0.70870000  0.10930000  0.16250000 -1.02500000
O        O    0.79130000  0.60930000  0.16250000 -1.02500000
O        O    0.17250000  0.78710000  0.06950000 -1.02500000
O        O    0.17250000  0.21290000  0.56950000 -1.02500000
O        O    0.67250000  0.71290000  0.93050000 -1.02500000
O        O    0.32750000  0.71290000  0.56950000 -1.02500000
O        O    0.17250000  0.78710000  0.43050000 -1.02500000
O        O    0.32750000  0.28710000  0.43050000 -1.02500000
O        O    0.82750000  0.21290000  0.93050000 -1.02500000
O        O    0.67250000  0.28710000  0.43050000 -1.02500000
O        O    0.17250000  0.21290000  0.93050000 -1.02500000
O        O    0.82750000  0.21290000  0.56950000 -1.02500000
O        O    0.82750000  0.78710000  0.43050000 -1.02500000
O        O    0.67250000  0.71290000  0.56950000 -1.02500000
O        O    0.32750000  0.28710000  0.06950000 -1.02500000
O        O    0.32750000  0.71290000  0.93050000 -1.02500000
O        O    0.67250000  0.28710000  0.06950000 -1.02500000
O        O    0.82750000  0.78710000  0.06950000 -1.02500000
O        O    0.36920000  0.50000000  0.50000000 -1.02500000
O        O    0.13080000  0.00000000  0.50000000 -1.02500000
O        O    0.36920000  0.50000000  0.00000000 -1.02500000
O        O    0.63080000  0.50000000  0.50000000 -1.02500000
O        O    0.86920000  0.00000000  0.50000000 -1.02500000
O        O    0.13080000  0.00000000  0.00000000 -1.02500000
O        O    0.86920000  0.00000000  0.00000000 -1.02500000
O        O    0.63080000  0.50000000  0.00000000 -1.02500000
