data_ITQ-3

_cell_length_a  11.39985690
_cell_length_b  11.39985690
_cell_length_c  19.62300000
_cell_angle_alpha  90.00000000
_cell_angle_beta  90.00000000
_cell_angle_gamma  50.49196930


_symmetry_space_group_name_Hall ' P 1'
_symmetry_space_group_name_H-M  'P 1'
_symmetry_Int_Tables_number     1

loop_
_atom_site_label
_atom_site_type_symbol
_atom_site_fract_x
_atom_site_fract_y
_atom_site_fract_z
_atom_site_charge
Si       Si   0.72282000  0.63682000  0.17011000  0.00000000
Si       Si   0.63682000  0.72282000  0.67011000  0.00000000
Si       Si   0.63682000  0.72282000  0.82989000  0.00000000
Si       Si   0.27718000  0.36318000  0.67011000  0.00000000
Si       Si   0.72282000  0.63682000  0.32989000  0.00000000
Si       Si   0.36318000  0.27718000  0.32989000  0.00000000
Si       Si   0.27718000  0.36318000  0.82989000  0.00000000
Si       Si   0.36318000  0.27718000  0.17011000  0.00000000
Si       Si   0.51769000  0.33109000  0.05610000  0.00000000
Si       Si   0.33109000  0.51769000  0.55610000  0.00000000
Si       Si   0.33109000  0.51769000  0.94390000  0.00000000
Si       Si   0.48231000  0.66891000  0.55610000  0.00000000
Si       Si   0.51769000  0.33109000  0.44390000  0.00000000
Si       Si   0.66891000  0.48231000  0.44390000  0.00000000
Si       Si   0.48231000  0.66891000  0.94390000  0.00000000
Si       Si   0.66891000  0.48231000  0.05610000  0.00000000
Si       Si   0.51040000  0.96140000  0.11210000  0.00000000
Si       Si   0.96140000  0.51040000  0.61210000  0.00000000
Si       Si   0.96140000  0.51040000  0.88790000  0.00000000
Si       Si   0.48960000  0.03860000  0.61210000  0.00000000
Si       Si   0.51040000  0.96140000  0.38790000  0.00000000
Si       Si   0.03860000  0.48960000  0.38790000  0.00000000
Si       Si   0.48960000  0.03860000  0.88790000  0.00000000
Si       Si   0.03860000  0.48960000  0.11210000  0.00000000
Si       Si   0.69188000  0.00208000  0.00360000  0.00000000
Si       Si   0.00208000  0.69188000  0.50360000  0.00000000
Si       Si   0.00208000  0.69188000  0.99640000  0.00000000
Si       Si   0.30812000  0.99792000  0.50360000  0.00000000
Si       Si   0.69188000  0.00208000  0.49640000  0.00000000
Si       Si   0.99792000  0.30812000  0.49640000  0.00000000
Si       Si   0.30812000  0.99792000  0.99640000  0.00000000
Si       Si   0.99792000  0.30812000  0.00360000  0.00000000
O        O    0.71540000  0.59920000  0.25000000  0.00000000
O        O    0.59920000  0.71540000  0.75000000  0.00000000
O        O    0.28460000  0.40080000  0.75000000  0.00000000
O        O    0.40080000  0.28460000  0.25000000  0.00000000
O        O    0.88100000  0.58400000  0.14910000  0.00000000
O        O    0.58400000  0.88100000  0.64910000  0.00000000
O        O    0.58400000  0.88100000  0.85090000  0.00000000
O        O    0.11900000  0.41600000  0.64910000  0.00000000
O        O    0.88100000  0.58400000  0.35090000  0.00000000
O        O    0.41600000  0.11900000  0.35090000  0.00000000
O        O    0.11900000  0.41600000  0.85090000  0.00000000
O        O    0.41600000  0.11900000  0.14910000  0.00000000
O        O    0.40040000  0.40040000  0.50000000  0.00000000
O        O    0.59960000  0.59960000  0.50000000  0.00000000
O        O    0.40040000  0.40040000  0.00000000  0.00000000
O        O    0.59960000  0.59960000  0.00000000  0.00000000
O        O    0.65060000  0.15380000  0.02870000  0.00000000
O        O    0.15380000  0.65060000  0.52870000  0.00000000
O        O    0.15380000  0.65060000  0.97130000  0.00000000
O        O    0.34940000  0.84620000  0.52870000  0.00000000
O        O    0.65060000  0.15380000  0.47130000  0.00000000
O        O    0.84620000  0.34940000  0.47130000  0.00000000
O        O    0.34940000  0.84620000  0.97130000  0.00000000
O        O    0.84620000  0.34940000  0.02870000  0.00000000
O        O    0.58950000  0.41050000  0.42820000  0.00000000
O        O    0.41050000  0.58950000  0.92820000  0.00000000
O        O    0.41050000  0.58950000  0.57180000  0.00000000
O        O    0.58950000  0.41050000  0.07180000  0.00000000
O        O    0.62650000  0.94390000  0.05690000  0.00000000
O        O    0.94390000  0.62650000  0.55690000  0.00000000
O        O    0.94390000  0.62650000  0.94310000  0.00000000
O        O    0.37350000  0.05610000  0.55690000  0.00000000
O        O    0.62650000  0.94390000  0.44310000  0.00000000
O        O    0.05610000  0.37350000  0.44310000  0.00000000
O        O    0.37350000  0.05610000  0.94310000  0.00000000
O        O    0.05610000  0.37350000  0.05690000  0.00000000
O        O    0.67580000  0.55020000  0.12880000  0.00000000
O        O    0.55020000  0.67580000  0.62880000  0.00000000
O        O    0.55020000  0.67580000  0.87120000  0.00000000
O        O    0.32420000  0.44980000  0.62880000  0.00000000
O        O    0.67580000  0.55020000  0.37120000  0.00000000
O        O    0.44980000  0.32420000  0.37120000  0.00000000
O        O    0.32420000  0.44980000  0.87120000  0.00000000
O        O    0.44980000  0.32420000  0.12880000  0.00000000
O        O    0.59940000  0.81800000  0.16250000  0.00000000
O        O    0.81800000  0.59940000  0.66250000  0.00000000
O        O    0.81800000  0.59940000  0.83750000  0.00000000
O        O    0.40060000  0.18200000  0.66250000  0.00000000
O        O    0.59940000  0.81800000  0.33750000  0.00000000
O        O    0.18200000  0.40060000  0.33750000  0.00000000
O        O    0.40060000  0.18200000  0.83750000  0.00000000
O        O    0.18200000  0.40060000  0.16250000  0.00000000
O        O    0.38540000  0.95960000  0.06950000  0.00000000
O        O    0.95960000  0.38540000  0.56950000  0.00000000
O        O    0.95960000  0.38540000  0.93050000  0.00000000
O        O    0.61460000  0.04040000  0.56950000  0.00000000
O        O    0.38540000  0.95960000  0.43050000  0.00000000
O        O    0.04040000  0.61460000  0.43050000  0.00000000
O        O    0.61460000  0.04040000  0.93050000  0.00000000
O        O    0.04040000  0.61460000  0.06950000  0.00000000
O        O    0.86920000  0.86920000  0.50000000  0.00000000
O        O    0.13080000  0.13080000  0.50000000  0.00000000
O        O    0.86920000  0.86920000  0.00000000  0.00000000
O        O    0.13080000  0.13080000  0.00000000  0.00000000
