data_ITQ-12

_cell_length_a  10.43640000
_cell_length_b  15.01830000
_cell_length_c  8.85530000
_cell_angle_alpha  90.00000000
_cell_angle_beta  105.73900000
_cell_angle_gamma  90.00000000


_symmetry_space_group_name_Hall ' P 1'
_symmetry_space_group_name_H-M  'P 1'
_symmetry_Int_Tables_number     1

loop_
_atom_site_label
_atom_site_type_symbol
_atom_site_fract_x
_atom_site_fract_y
_atom_site_fract_z
_atom_site_charge
Si       Si   0.64381000  0.74906000  0.11216000  0.00000000
Si       Si   0.64381000  0.25094000  0.11216000  0.00000000
Si       Si   0.14381000  0.75094000  0.11216000  0.00000000
Si       Si   0.14381000  0.24906000  0.11216000  0.00000000
Si       Si   0.68834000  0.59804000  0.67410000  0.00000000
Si       Si   0.68834000  0.40196000  0.67410000  0.00000000
Si       Si   0.18834000  0.90196000  0.67410000  0.00000000
Si       Si   0.18834000  0.09804000  0.67410000  0.00000000
Si       Si   0.58727000  0.59955000  0.32060000  0.00000000
Si       Si   0.58727000  0.40045000  0.32060000  0.00000000
Si       Si   0.08727000  0.90045000  0.32060000  0.00000000
Si       Si   0.08727000  0.09955000  0.32060000  0.00000000
Si       Si   0.34596000  0.76173000  0.90380000  0.00000000
Si       Si   0.34596000  0.23827000  0.90380000  0.00000000
Si       Si   0.84596000  0.73827000  0.90380000  0.00000000
Si       Si   0.84596000  0.26173000  0.90380000  0.00000000
Si       Si   0.29685000  0.60483000  0.33310000  0.00000000
Si       Si   0.29685000  0.39517000  0.33310000  0.00000000
Si       Si   0.79685000  0.89517000  0.33310000  0.00000000
Si       Si   0.79685000  0.10483000  0.33310000  0.00000000
Si       Si   0.39347000  0.60584000  0.69900000  0.00000000
Si       Si   0.39347000  0.39416000  0.69900000  0.00000000
Si       Si   0.89347000  0.89416000  0.69900000  0.00000000
Si       Si   0.89347000  0.10584000  0.69900000  0.00000000
O        O    0.65860000  0.66010000  0.21680000  0.00000000
O        O    0.65860000  0.33990000  0.21680000  0.00000000
O        O    0.15860000  0.83990000  0.21680000  0.00000000
O        O    0.15860000  0.16010000  0.21680000  0.00000000
O        O    0.43110000  0.62640000  0.28120000  0.00000000
O        O    0.43110000  0.37360000  0.28120000  0.00000000
O        O    0.93110000  0.87360000  0.28120000  0.00000000
O        O    0.93110000  0.12640000  0.28120000  0.00000000
O        O    0.66650000  0.63130000  0.49580000  0.00000000
O        O    0.66650000  0.36870000  0.49580000  0.00000000
O        O    0.16650000  0.86870000  0.49580000  0.00000000
O        O    0.16650000  0.13130000  0.49580000  0.00000000
O        O    0.74440000  0.73680000  0.00760000  0.00000000
O        O    0.74440000  0.26320000  0.00760000  0.00000000
O        O    0.24440000  0.76320000  0.00760000  0.00000000
O        O    0.24440000  0.23680000  0.00760000  0.00000000
O        O    0.73020000  0.50000000  0.74580000  0.00000000
O        O    0.23020000  0.00000000  0.74580000  0.00000000
O        O    0.50000000  0.77320000  0.99870000  0.00000000
O        O    0.50000000  0.22680000  0.99870000  0.00000000
O        O    0.00000000  0.72680000  0.99870000  0.00000000
O        O    0.00000000  0.27320000  0.99870000  0.00000000
O        O    0.80390000  0.66530000  0.76660000  0.00000000
O        O    0.80390000  0.33470000  0.76660000  0.00000000
O        O    0.30390000  0.83470000  0.76660000  0.00000000
O        O    0.30390000  0.16530000  0.76660000  0.00000000
O        O    0.60200000  0.50000000  0.25310000  0.00000000
O        O    0.10200000  0.00000000  0.25310000  0.00000000
O        O    0.18180000  0.66250000  0.21640000  0.00000000
O        O    0.18180000  0.33750000  0.21640000  0.00000000
O        O    0.68180000  0.83750000  0.21640000  0.00000000
O        O    0.68180000  0.16250000  0.21640000  0.00000000
O        O    0.37720000  0.50000000  0.72060000  0.00000000
O        O    0.87720000  0.00000000  0.72060000  0.00000000
O        O    0.34970000  0.66480000  0.82690000  0.00000000
O        O    0.34970000  0.33520000  0.82690000  0.00000000
O        O    0.84970000  0.83520000  0.82690000  0.00000000
O        O    0.84970000  0.16480000  0.82690000  0.00000000
O        O    0.55030000  0.62470000  0.71570000  0.00000000
O        O    0.55030000  0.37530000  0.71570000  0.00000000
O        O    0.05030000  0.87530000  0.71570000  0.00000000
O        O    0.05030000  0.12470000  0.71570000  0.00000000
O        O    0.31070000  0.61330000  0.51720000  0.00000000
O        O    0.31070000  0.38670000  0.51720000  0.00000000
O        O    0.81070000  0.88670000  0.51720000  0.00000000
O        O    0.81070000  0.11330000  0.51720000  0.00000000
O        O    0.26470000  0.50000000  0.31140000  0.00000000
O        O    0.76470000  0.00000000  0.31140000  0.00000000
