data_ITQ-12

_cell_length_a  9.14423015
_cell_length_b  9.14423015
_cell_length_c  8.85530000
_cell_angle_alpha  81.09518665
_cell_angle_beta  81.09518665
_cell_angle_gamma  110.40818291


_symmetry_space_group_name_Hall ' P 1'
_symmetry_space_group_name_H-M  'P 1'
_symmetry_Int_Tables_number     1

loop_
_atom_site_label
_atom_site_type_symbol
_atom_site_fract_x
_atom_site_fract_y
_atom_site_fract_z
_atom_site_charge
Si       Si   0.39287000  0.89475000  0.88784000  0.00000000
Si       Si   0.89475000  0.39287000  0.88784000  0.00000000
Si       Si   0.28638000  0.09030000  0.32590000  0.00000000
Si       Si   0.09030000  0.28638000  0.32590000  0.00000000
Si       Si   0.18682000  0.98772000  0.67940000  0.00000000
Si       Si   0.98772000  0.18682000  0.67940000  0.00000000
Si       Si   0.10769000  0.58423000  0.09620000  0.00000000
Si       Si   0.58423000  0.10769000  0.09620000  0.00000000
Si       Si   0.90168000  0.69202000  0.66690000  0.00000000
Si       Si   0.69202000  0.90168000  0.66690000  0.00000000
Si       Si   0.99931000  0.78763000  0.30100000  0.00000000
Si       Si   0.78763000  0.99931000  0.30100000  0.00000000
O        O    0.31870000  0.99850000  0.78320000  0.00000000
O        O    0.99850000  0.31870000  0.78320000  0.00000000
O        O    0.05750000  0.80470000  0.71880000  0.00000000
O        O    0.80470000  0.05750000  0.71880000  0.00000000
O        O    0.29780000  0.03520000  0.50420000  0.00000000
O        O    0.03520000  0.29780000  0.50420000  0.00000000
O        O    0.48120000  0.00760000  0.99240000  0.00000000
O        O    0.00760000  0.48120000  0.99240000  0.00000000
O        O    0.23020000  0.23020000  0.25420000  0.00000000
O        O    0.27320000  0.72680000  0.00130000  0.00000000
O        O    0.72680000  0.27320000  0.00130000  0.00000000
O        O    0.46920000  0.13860000  0.23340000  0.00000000
O        O    0.13860000  0.46920000  0.23340000  0.00000000
O        O    0.10200000  0.10200000  0.74690000  0.00000000
O        O    0.84430000  0.51930000  0.78360000  0.00000000
O        O    0.51930000  0.84430000  0.78360000  0.00000000
O        O    0.87720000  0.87720000  0.27940000  0.00000000
O        O    0.01450000  0.68490000  0.17310000  0.00000000
O        O    0.68490000  0.01450000  0.17310000  0.00000000
O        O    0.17500000  0.92560000  0.28430000  0.00000000
O        O    0.92560000  0.17500000  0.28430000  0.00000000
O        O    0.92400000  0.69740000  0.48280000  0.00000000
O        O    0.69740000  0.92400000  0.48280000  0.00000000
O        O    0.76470000  0.76470000  0.68860000  0.00000000
