data_ITQ-1

_cell_length_a  14.20810000
_cell_length_b  14.20810000
_cell_length_c  24.94500000
_cell_angle_alpha  90.00000000
_cell_angle_beta  90.00000000
_cell_angle_gamma  120.00000000


_symmetry_space_group_name_Hall ' P 1'
_symmetry_space_group_name_H-M  'P 1'
_symmetry_Int_Tables_number     1

loop_
_atom_site_label
_atom_site_type_symbol
_atom_site_fract_x
_atom_site_fract_y
_atom_site_fract_z
_atom_site_charge
Si       Si   0.66670000  0.33340000  0.06330000  1.00000000
Si       Si   0.33330000  0.66660000  0.93670000  1.00000000
Si       Si   0.33330000  0.66660000  0.06330000  1.00000000
Si       Si   0.66670000  0.33340000  0.93670000  1.00000000
Si       Si   0.76570000  0.53150000  0.86440000  1.00000000
Si       Si   0.76570000  0.53150000  0.13560000  1.00000000
Si       Si   0.53150000  0.76570000  0.86440000  1.00000000
Si       Si   0.23420000  0.46850000  0.86440000  1.00000000
Si       Si   0.76570000  0.23420000  0.13560000  1.00000000
Si       Si   0.46850000  0.23430000  0.13560000  1.00000000
Si       Si   0.23420000  0.46850000  0.13560000  1.00000000
Si       Si   0.76570000  0.23420000  0.86440000  1.00000000
Si       Si   0.23420000  0.76570000  0.86440000  1.00000000
Si       Si   0.53150000  0.76570000  0.13560000  1.00000000
Si       Si   0.23420000  0.76570000  0.13560000  1.00000000
Si       Si   0.46850000  0.23430000  0.86440000  1.00000000
Si       Si   0.60960000  0.60960000  0.83930000  1.00000000
Si       Si   0.00000000  0.39040000  0.83930000  1.00000000
Si       Si   0.60960000  0.00000000  0.16070000  1.00000000
Si       Si   0.39040000  0.39040000  0.16070000  1.00000000
Si       Si   0.00000000  0.39040000  0.16070000  1.00000000
Si       Si   0.60960000  0.00000000  0.83930000  1.00000000
Si       Si   0.39040000  0.00000000  0.83930000  1.00000000
Si       Si   0.00000000  0.60960000  0.83930000  1.00000000
Si       Si   0.39040000  0.00000000  0.16070000  1.00000000
Si       Si   0.60960000  0.60960000  0.16070000  1.00000000
Si       Si   0.00000000  0.60960000  0.16070000  1.00000000
Si       Si   0.39040000  0.39040000  0.83930000  1.00000000
Si       Si   0.66670000  0.33340000  0.21080000  1.00000000
Si       Si   0.33330000  0.66660000  0.78920000  1.00000000
Si       Si   0.33330000  0.66660000  0.21080000  1.00000000
Si       Si   0.66670000  0.33340000  0.78920000  1.00000000
Si       Si   0.66670000  0.33340000  0.34040000  1.00000000
Si       Si   0.33330000  0.66660000  0.65960000  1.00000000
Si       Si   0.33330000  0.66660000  0.34040000  1.00000000
Si       Si   0.66670000  0.33340000  0.65960000  1.00000000
Si       Si   0.61050000  0.61050000  0.71280000  1.00000000
Si       Si   0.00000000  0.38950000  0.71280000  1.00000000
Si       Si   0.61050000  0.00000000  0.28720000  1.00000000
Si       Si   0.38950000  0.38950000  0.28720000  1.00000000
Si       Si   0.00000000  0.38950000  0.28720000  1.00000000
Si       Si   0.61050000  0.00000000  0.71280000  1.00000000
Si       Si   0.38950000  0.00000000  0.71280000  1.00000000
Si       Si   0.00000000  0.61050000  0.71280000  1.00000000
Si       Si   0.38950000  0.00000000  0.28720000  1.00000000
Si       Si   0.61050000  0.61050000  0.28720000  1.00000000
Si       Si   0.00000000  0.61050000  0.28720000  1.00000000
Si       Si   0.38950000  0.38950000  0.71280000  1.00000000
Si       Si   0.78930000  0.57850000  0.65300000  1.00000000
Si       Si   0.78930000  0.57850000  0.34700000  1.00000000
Si       Si   0.57850000  0.78930000  0.65300000  1.00000000
Si       Si   0.21080000  0.42150000  0.65300000  1.00000000
Si       Si   0.78930000  0.21080000  0.34700000  1.00000000
Si       Si   0.42150000  0.21070000  0.34700000  1.00000000
Si       Si   0.21080000  0.42150000  0.34700000  1.00000000
Si       Si   0.78930000  0.21080000  0.65300000  1.00000000
Si       Si   0.21080000  0.78930000  0.65300000  1.00000000
Si       Si   0.57850000  0.78930000  0.34700000  1.00000000
Si       Si   0.21080000  0.78930000  0.34700000  1.00000000
Si       Si   0.42150000  0.21070000  0.65300000  1.00000000
Si       Si   0.87280000  0.74560000  0.55930000  1.00000000
Si       Si   0.87280000  0.74560000  0.44070000  1.00000000
Si       Si   0.74560000  0.87280000  0.55930000  1.00000000
Si       Si   0.12720000  0.25440000  0.55930000  1.00000000
Si       Si   0.87280000  0.12720000  0.44070000  1.00000000
Si       Si   0.25440000  0.12720000  0.44070000  1.00000000
Si       Si   0.12720000  0.25440000  0.44070000  1.00000000
Si       Si   0.87280000  0.12720000  0.55930000  1.00000000
Si       Si   0.12720000  0.87280000  0.55930000  1.00000000
Si       Si   0.74560000  0.87280000  0.44070000  1.00000000
Si       Si   0.12720000  0.87280000  0.44070000  1.00000000
Si       Si   0.25440000  0.12720000  0.55930000  1.00000000
O        O    0.33330000  0.66660000  0.00000000  1.00000000
O        O    0.66670000  0.33340000  0.00000000  1.00000000
O        O    0.72940000  0.45890000  0.91780000  1.00000000
O        O    0.72940000  0.45890000  0.08220000  1.00000000
O        O    0.45890000  0.72940000  0.91780000  1.00000000
O        O    0.27050000  0.54110000  0.91780000  1.00000000
O        O    0.72940000  0.27050000  0.08220000  1.00000000
O        O    0.54110000  0.27060000  0.08220000  1.00000000
O        O    0.27050000  0.54110000  0.08220000  1.00000000
O        O    0.72940000  0.27050000  0.91780000  1.00000000
O        O    0.27050000  0.72940000  0.91780000  1.00000000
O        O    0.45890000  0.72940000  0.08220000  1.00000000
O        O    0.27050000  0.72940000  0.08220000  1.00000000
O        O    0.54110000  0.27060000  0.91780000  1.00000000
O        O    0.89520000  0.60580000  0.13480000  1.00000000
O        O    0.28940000  0.39420000  0.86520000  1.00000000
O        O    0.89520000  0.60580000  0.86520000  1.00000000
O        O    0.60580000  0.89520000  0.86520000  1.00000000
O        O    0.71060000  0.60580000  0.86520000  1.00000000
O        O    0.28940000  0.39420000  0.13480000  1.00000000
O        O    0.89520000  0.28940000  0.13480000  1.00000000
O        O    0.28940000  0.89520000  0.86520000  1.00000000
O        O    0.71060000  0.60580000  0.13480000  1.00000000
O        O    0.60580000  0.71060000  0.86520000  1.00000000
O        O    0.60580000  0.89520000  0.13480000  1.00000000
O        O    0.10480000  0.39420000  0.86520000  1.00000000
O        O    0.89520000  0.28940000  0.86520000  1.00000000
O        O    0.39420000  0.10480000  0.13480000  1.00000000
O        O    0.71060000  0.10480000  0.13480000  1.00000000
O        O    0.39420000  0.28940000  0.13480000  1.00000000
O        O    0.10480000  0.39420000  0.13480000  1.00000000
O        O    0.71060000  0.10480000  0.86520000  1.00000000
O        O    0.39420000  0.10480000  0.86520000  1.00000000
O        O    0.10480000  0.71060000  0.86520000  1.00000000
O        O    0.28940000  0.89520000  0.13480000  1.00000000
O        O    0.60580000  0.71060000  0.13480000  1.00000000
O        O    0.10480000  0.71060000  0.13480000  1.00000000
O        O    0.39420000  0.28940000  0.86520000  1.00000000
O        O    0.72730000  0.45470000  0.81180000  1.00000000
O        O    0.72730000  0.45470000  0.18820000  1.00000000
O        O    0.45470000  0.72730000  0.81180000  1.00000000
O        O    0.27260000  0.54530000  0.81180000  1.00000000
O        O    0.72730000  0.27260000  0.18820000  1.00000000
O        O    0.54530000  0.27270000  0.18820000  1.00000000
O        O    0.27260000  0.54530000  0.18820000  1.00000000
O        O    0.72730000  0.27260000  0.81180000  1.00000000
O        O    0.27260000  0.72730000  0.81180000  1.00000000
O        O    0.45470000  0.72730000  0.18820000  1.00000000
O        O    0.27260000  0.72730000  0.18820000  1.00000000
O        O    0.54530000  0.27270000  0.81180000  1.00000000
O        O    0.66670000  0.33340000  0.27550000  1.00000000
O        O    0.33330000  0.66660000  0.72450000  1.00000000
O        O    0.33330000  0.66660000  0.27550000  1.00000000
O        O    0.66670000  0.33340000  0.72450000  1.00000000
O        O    0.62370000  0.62370000  0.77610000  1.00000000
O        O    0.00000000  0.37630000  0.77610000  1.00000000
O        O    0.62370000  0.00000000  0.22390000  1.00000000
O        O    0.37630000  0.37630000  0.22390000  1.00000000
O        O    0.00000000  0.37630000  0.22390000  1.00000000
O        O    0.62370000  0.00000000  0.77610000  1.00000000
O        O    0.37630000  0.00000000  0.77610000  1.00000000
O        O    0.00000000  0.62370000  0.77610000  1.00000000
O        O    0.37630000  0.00000000  0.22390000  1.00000000
O        O    0.62370000  0.62370000  0.22390000  1.00000000
O        O    0.00000000  0.62370000  0.22390000  1.00000000
O        O    0.37630000  0.37630000  0.77610000  1.00000000
O        O    0.50000000  0.00000000  0.85510000  1.00000000
O        O    0.00000000  0.50000000  0.85510000  1.00000000
O        O    0.50000000  0.00000000  0.14490000  1.00000000
O        O    0.50000000  0.50000000  0.14490000  1.00000000
O        O    0.00000000  0.50000000  0.14490000  1.00000000
O        O    0.50000000  0.50000000  0.85510000  1.00000000
O        O    0.50000000  0.00000000  0.69790000  1.00000000
O        O    0.00000000  0.50000000  0.69790000  1.00000000
O        O    0.50000000  0.00000000  0.30210000  1.00000000
O        O    0.50000000  0.50000000  0.30210000  1.00000000
O        O    0.00000000  0.50000000  0.30210000  1.00000000
O        O    0.50000000  0.50000000  0.69790000  1.00000000
O        O    0.89370000  0.60550000  0.31160000  1.00000000
O        O    0.28820000  0.39450000  0.68840000  1.00000000
O        O    0.89370000  0.60550000  0.68840000  1.00000000
O        O    0.60550000  0.89370000  0.68840000  1.00000000
O        O    0.71180000  0.60550000  0.68840000  1.00000000
O        O    0.28820000  0.39450000  0.31160000  1.00000000
O        O    0.89370000  0.28820000  0.31160000  1.00000000
O        O    0.28820000  0.89370000  0.68840000  1.00000000
O        O    0.71180000  0.60550000  0.31160000  1.00000000
O        O    0.60550000  0.71180000  0.68840000  1.00000000
O        O    0.60550000  0.89370000  0.31160000  1.00000000
O        O    0.10630000  0.39450000  0.68840000  1.00000000
O        O    0.89370000  0.28820000  0.68840000  1.00000000
O        O    0.39450000  0.10630000  0.31160000  1.00000000
O        O    0.71180000  0.10630000  0.31160000  1.00000000
O        O    0.39450000  0.28820000  0.31160000  1.00000000
O        O    0.10630000  0.39450000  0.31160000  1.00000000
O        O    0.71180000  0.10630000  0.68840000  1.00000000
O        O    0.39450000  0.10630000  0.68840000  1.00000000
O        O    0.10630000  0.71180000  0.68840000  1.00000000
O        O    0.28820000  0.89370000  0.31160000  1.00000000
O        O    0.60550000  0.71180000  0.31160000  1.00000000
O        O    0.10630000  0.71180000  0.31160000  1.00000000
O        O    0.39450000  0.28820000  0.68840000  1.00000000
O        O    0.72660000  0.45310000  0.63620000  1.00000000
O        O    0.72660000  0.45310000  0.36380000  1.00000000
O        O    0.45310000  0.72660000  0.63620000  1.00000000
O        O    0.27350000  0.54690000  0.63620000  1.00000000
O        O    0.72660000  0.27350000  0.36380000  1.00000000
O        O    0.54690000  0.27340000  0.36380000  1.00000000
O        O    0.27350000  0.54690000  0.36380000  1.00000000
O        O    0.72660000  0.27350000  0.63620000  1.00000000
O        O    0.27350000  0.72660000  0.63620000  1.00000000
O        O    0.45310000  0.72660000  0.36380000  1.00000000
O        O    0.27350000  0.72660000  0.36380000  1.00000000
O        O    0.54690000  0.27340000  0.63620000  1.00000000
O        O    0.82320000  0.64640000  0.59860000  1.00000000
O        O    0.82320000  0.64640000  0.40140000  1.00000000
O        O    0.64640000  0.82320000  0.59860000  1.00000000
O        O    0.17680000  0.35360000  0.59860000  1.00000000
O        O    0.82320000  0.17680000  0.40140000  1.00000000
O        O    0.35360000  0.17680000  0.40140000  1.00000000
O        O    0.17680000  0.35360000  0.40140000  1.00000000
O        O    0.82320000  0.17680000  0.59860000  1.00000000
O        O    0.17680000  0.82320000  0.59860000  1.00000000
O        O    0.64640000  0.82320000  0.40140000  1.00000000
O        O    0.17680000  0.82320000  0.40140000  1.00000000
O        O    0.35360000  0.17680000  0.59860000  1.00000000
O        O    0.81650000  0.81650000  0.57000000  1.00000000
O        O    0.00000000  0.18350000  0.57000000  1.00000000
O        O    0.81650000  0.00000000  0.43000000  1.00000000
O        O    0.18350000  0.18350000  0.43000000  1.00000000
O        O    0.00000000  0.18350000  0.43000000  1.00000000
O        O    0.81650000  0.00000000  0.57000000  1.00000000
O        O    0.18350000  0.00000000  0.57000000  1.00000000
O        O    0.00000000  0.81650000  0.57000000  1.00000000
O        O    0.18350000  0.00000000  0.43000000  1.00000000
O        O    0.81650000  0.81650000  0.43000000  1.00000000
O        O    0.00000000  0.81650000  0.43000000  1.00000000
O        O    0.18350000  0.18350000  0.57000000  1.00000000
O        O    0.84910000  0.69830000  0.50000000  1.00000000
O        O    0.15080000  0.30170000  0.50000000  1.00000000
O        O    0.84910000  0.15080000  0.50000000  1.00000000
O        O    0.69830000  0.84910000  0.50000000  1.00000000
O        O    0.15080000  0.84910000  0.50000000  1.00000000
O        O    0.30170000  0.15090000  0.50000000  1.00000000
