data_ITQ-7

_cell_length_a  12.85280000
_cell_length_b  12.85280000
_cell_length_c  25.21360000
_cell_angle_alpha  90.00000000
_cell_angle_beta  90.00000000
_cell_angle_gamma  90.00000000


_symmetry_space_group_name_Hall ' P 1'
_symmetry_space_group_name_H-M  'P 1'
_symmetry_Int_Tables_number     1

loop_
_atom_site_label
_atom_site_type_symbol
_atom_site_fract_x
_atom_site_fract_y
_atom_site_fract_z
_atom_site_charge
Si       Si   0.88080000  0.88540000  0.93749000  2.05000000
Si       Si   0.11460000  0.11920000  0.56251000  2.05000000
Si       Si   0.11460000  0.88080000  0.56251000  2.05000000
Si       Si   0.88080000  0.88540000  0.06251000  2.05000000
Si       Si   0.88540000  0.88080000  0.56251000  2.05000000
Si       Si   0.88080000  0.11460000  0.93749000  2.05000000
Si       Si   0.11920000  0.88540000  0.06251000  2.05000000
Si       Si   0.11920000  0.11460000  0.06251000  2.05000000
Si       Si   0.88540000  0.11920000  0.56251000  2.05000000
Si       Si   0.11460000  0.88080000  0.43749000  2.05000000
Si       Si   0.11460000  0.11920000  0.43749000  2.05000000
Si       Si   0.11920000  0.88540000  0.93749000  2.05000000
Si       Si   0.11920000  0.11460000  0.93749000  2.05000000
Si       Si   0.88540000  0.11920000  0.43749000  2.05000000
Si       Si   0.88080000  0.11460000  0.06251000  2.05000000
Si       Si   0.88540000  0.88080000  0.43749000  2.05000000
Si       Si   0.69380000  0.74890000  0.09541000  2.05000000
Si       Si   0.25110000  0.30620000  0.40459000  2.05000000
Si       Si   0.25110000  0.69380000  0.40459000  2.05000000
Si       Si   0.69380000  0.74890000  0.90459000  2.05000000
Si       Si   0.74890000  0.69380000  0.40459000  2.05000000
Si       Si   0.69380000  0.25110000  0.09541000  2.05000000
Si       Si   0.30620000  0.74890000  0.90459000  2.05000000
Si       Si   0.30620000  0.25110000  0.90459000  2.05000000
Si       Si   0.74890000  0.30620000  0.40459000  2.05000000
Si       Si   0.25110000  0.69380000  0.59541000  2.05000000
Si       Si   0.25110000  0.30620000  0.59541000  2.05000000
Si       Si   0.30620000  0.74890000  0.09541000  2.05000000
Si       Si   0.30620000  0.25110000  0.09541000  2.05000000
Si       Si   0.74890000  0.30620000  0.59541000  2.05000000
Si       Si   0.69380000  0.25110000  0.90459000  2.05000000
Si       Si   0.74890000  0.69380000  0.59541000  2.05000000
Si       Si   0.11670000  0.50000000  0.56146000  2.05000000
Si       Si   0.50000000  0.88330000  0.06146000  2.05000000
Si       Si   0.88330000  0.50000000  0.56146000  2.05000000
Si       Si   0.11670000  0.50000000  0.43854000  2.05000000
Si       Si   0.50000000  0.88330000  0.93854000  2.05000000
Si       Si   0.50000000  0.11670000  0.93854000  2.05000000
Si       Si   0.50000000  0.11670000  0.06146000  2.05000000
Si       Si   0.88330000  0.50000000  0.43854000  2.05000000
Si       Si   0.61780000  0.61510000  0.81187000  2.05000000
Si       Si   0.38490000  0.38220000  0.68813000  2.05000000
Si       Si   0.38490000  0.61780000  0.68813000  2.05000000
Si       Si   0.61780000  0.61510000  0.18813000  2.05000000
Si       Si   0.61510000  0.61780000  0.68813000  2.05000000
Si       Si   0.61780000  0.38490000  0.81187000  2.05000000
Si       Si   0.38220000  0.61510000  0.18813000  2.05000000
Si       Si   0.38220000  0.38490000  0.18813000  2.05000000
Si       Si   0.61510000  0.38220000  0.68813000  2.05000000
Si       Si   0.38490000  0.61780000  0.31187000  2.05000000
Si       Si   0.38490000  0.38220000  0.31187000  2.05000000
Si       Si   0.38220000  0.61510000  0.81187000  2.05000000
Si       Si   0.38220000  0.38490000  0.81187000  2.05000000
Si       Si   0.61510000  0.38220000  0.31187000  2.05000000
Si       Si   0.61780000  0.38490000  0.18813000  2.05000000
Si       Si   0.61510000  0.61780000  0.31187000  2.05000000
Si       Si   0.62070000  0.61200000  0.00000000  2.05000000
Si       Si   0.38800000  0.62070000  0.50000000  2.05000000
Si       Si   0.38800000  0.37930000  0.50000000  2.05000000
Si       Si   0.37930000  0.61200000  0.00000000  2.05000000
Si       Si   0.37930000  0.38800000  0.00000000  2.05000000
Si       Si   0.61200000  0.37930000  0.50000000  2.05000000
Si       Si   0.62070000  0.38800000  0.00000000  2.05000000
Si       Si   0.61200000  0.62070000  0.50000000  2.05000000
O        O    0.85740000  0.86870000  0.00000000 -1.02500000
O        O    0.13130000  0.85740000  0.50000000 -1.02500000
O        O    0.13130000  0.14260000  0.50000000 -1.02500000
O        O    0.14260000  0.86870000  0.00000000 -1.02500000
O        O    0.14260000  0.13130000  0.00000000 -1.02500000
O        O    0.86870000  0.14260000  0.50000000 -1.02500000
O        O    0.85740000  0.13130000  0.00000000 -1.02500000
O        O    0.86870000  0.85740000  0.50000000 -1.02500000
O        O    0.00000000  0.84880000  0.57880000 -1.02500000
O        O    0.84880000  0.00000000  0.92120000 -1.02500000
O        O    0.15120000  0.00000000  0.07880000 -1.02500000
O        O    0.00000000  0.15120000  0.57880000 -1.02500000
O        O    0.15120000  0.00000000  0.92120000 -1.02500000
O        O    0.00000000  0.15120000  0.42120000 -1.02500000
O        O    0.84880000  0.00000000  0.07880000 -1.02500000
O        O    0.00000000  0.84880000  0.42120000 -1.02500000
O        O    0.13790000  0.00000000  0.57420000 -1.02500000
O        O    0.00000000  0.86210000  0.07420000 -1.02500000
O        O    0.86210000  0.00000000  0.57420000 -1.02500000
O        O    0.13790000  0.00000000  0.42580000 -1.02500000
O        O    0.00000000  0.86210000  0.92580000 -1.02500000
O        O    0.00000000  0.13790000  0.92580000 -1.02500000
O        O    0.00000000  0.13790000  0.07420000 -1.02500000
O        O    0.86210000  0.00000000  0.42580000 -1.02500000
O        O    0.79980000  0.81120000  0.91300000 -1.02500000
O        O    0.18880000  0.20020000  0.58700000 -1.02500000
O        O    0.18880000  0.79980000  0.58700000 -1.02500000
O        O    0.79980000  0.81120000  0.08700000 -1.02500000
O        O    0.81120000  0.79980000  0.58700000 -1.02500000
O        O    0.79980000  0.18880000  0.91300000 -1.02500000
O        O    0.20020000  0.81120000  0.08700000 -1.02500000
O        O    0.20020000  0.18880000  0.08700000 -1.02500000
O        O    0.81120000  0.20020000  0.58700000 -1.02500000
O        O    0.18880000  0.79980000  0.41300000 -1.02500000
O        O    0.18880000  0.20020000  0.41300000 -1.02500000
O        O    0.20020000  0.81120000  0.91300000 -1.02500000
O        O    0.20020000  0.18880000  0.91300000 -1.02500000
O        O    0.81120000  0.20020000  0.41300000 -1.02500000
O        O    0.79980000  0.18880000  0.08700000 -1.02500000
O        O    0.81120000  0.79980000  0.41300000 -1.02500000
O        O    0.60040000  0.83150000  0.08840000 -1.02500000
O        O    0.16850000  0.39960000  0.41160000 -1.02500000
O        O    0.16850000  0.60040000  0.41160000 -1.02500000
O        O    0.60040000  0.83150000  0.91160000 -1.02500000
O        O    0.83150000  0.60040000  0.41160000 -1.02500000
O        O    0.60040000  0.16850000  0.08840000 -1.02500000
O        O    0.39960000  0.83150000  0.91160000 -1.02500000
O        O    0.39960000  0.16850000  0.91160000 -1.02500000
O        O    0.83150000  0.39960000  0.41160000 -1.02500000
O        O    0.16850000  0.60040000  0.58840000 -1.02500000
O        O    0.16850000  0.39960000  0.58840000 -1.02500000
O        O    0.39960000  0.83150000  0.08840000 -1.02500000
O        O    0.39960000  0.16850000  0.08840000 -1.02500000
O        O    0.83150000  0.39960000  0.58840000 -1.02500000
O        O    0.60040000  0.16850000  0.91160000 -1.02500000
O        O    0.83150000  0.60040000  0.58840000 -1.02500000
O        O    0.68030000  0.66660000  0.05140000 -1.02500000
O        O    0.33340000  0.31970000  0.44860000 -1.02500000
O        O    0.33340000  0.68030000  0.44860000 -1.02500000
O        O    0.68030000  0.66660000  0.94860000 -1.02500000
O        O    0.66660000  0.68030000  0.44860000 -1.02500000
O        O    0.68030000  0.33340000  0.05140000 -1.02500000
O        O    0.31970000  0.66660000  0.94860000 -1.02500000
O        O    0.31970000  0.33340000  0.94860000 -1.02500000
O        O    0.66660000  0.31970000  0.44860000 -1.02500000
O        O    0.33340000  0.68030000  0.55140000 -1.02500000
O        O    0.33340000  0.31970000  0.55140000 -1.02500000
O        O    0.31970000  0.66660000  0.05140000 -1.02500000
O        O    0.31970000  0.33340000  0.05140000 -1.02500000
O        O    0.66660000  0.31970000  0.55140000 -1.02500000
O        O    0.68030000  0.33340000  0.94860000 -1.02500000
O        O    0.66660000  0.68030000  0.55140000 -1.02500000
O        O    0.67950000  0.69730000  0.15470000 -1.02500000
O        O    0.30270000  0.32050000  0.34530000 -1.02500000
O        O    0.30270000  0.67950000  0.34530000 -1.02500000
O        O    0.67950000  0.69730000  0.84530000 -1.02500000
O        O    0.69730000  0.67950000  0.34530000 -1.02500000
O        O    0.67950000  0.30270000  0.15470000 -1.02500000
O        O    0.32050000  0.69730000  0.84530000 -1.02500000
O        O    0.32050000  0.30270000  0.84530000 -1.02500000
O        O    0.69730000  0.32050000  0.34530000 -1.02500000
O        O    0.30270000  0.67950000  0.65470000 -1.02500000
O        O    0.30270000  0.32050000  0.65470000 -1.02500000
O        O    0.32050000  0.69730000  0.15470000 -1.02500000
O        O    0.32050000  0.30270000  0.15470000 -1.02500000
O        O    0.69730000  0.32050000  0.65470000 -1.02500000
O        O    0.67950000  0.30270000  0.84530000 -1.02500000
O        O    0.69730000  0.67950000  0.65470000 -1.02500000
O        O    0.00000000  0.50000000  0.57590000 -1.02500000
O        O    0.50000000  0.00000000  0.92410000 -1.02500000
O        O    0.50000000  0.00000000  0.07590000 -1.02500000
O        O    0.00000000  0.50000000  0.42410000 -1.02500000
O        O    0.13730000  0.50000000  0.50000000 -1.02500000
O        O    0.50000000  0.86270000  0.00000000 -1.02500000
O        O    0.50000000  0.13730000  0.00000000 -1.02500000
O        O    0.86270000  0.50000000  0.50000000 -1.02500000
O        O    0.37330000  0.50000000  0.50000000 -1.02500000
O        O    0.50000000  0.62670000  0.00000000 -1.02500000
O        O    0.50000000  0.37330000  0.00000000 -1.02500000
O        O    0.62670000  0.50000000  0.50000000 -1.02500000
O        O    0.33270000  0.50000000  0.00000000 -1.02500000
O        O    0.50000000  0.33270000  0.50000000 -1.02500000
O        O    0.66730000  0.50000000  0.00000000 -1.02500000
O        O    0.50000000  0.66730000  0.50000000 -1.02500000
O        O    0.64160000  0.64160000  0.75000000 -1.02500000
O        O    0.64160000  0.35840000  0.75000000 -1.02500000
O        O    0.35840000  0.64160000  0.25000000 -1.02500000
O        O    0.35840000  0.35840000  0.25000000 -1.02500000
O        O    0.35840000  0.64160000  0.75000000 -1.02500000
O        O    0.35840000  0.35840000  0.75000000 -1.02500000
O        O    0.64160000  0.35840000  0.25000000 -1.02500000
O        O    0.64160000  0.64160000  0.25000000 -1.02500000
O        O    0.36260000  0.50000000  0.67820000 -1.02500000
O        O    0.50000000  0.63740000  0.17820000 -1.02500000
O        O    0.63740000  0.50000000  0.67820000 -1.02500000
O        O    0.36260000  0.50000000  0.32180000 -1.02500000
O        O    0.50000000  0.63740000  0.82180000 -1.02500000
O        O    0.50000000  0.36260000  0.82180000 -1.02500000
O        O    0.50000000  0.36260000  0.17820000 -1.02500000
O        O    0.63740000  0.50000000  0.32180000 -1.02500000
O        O    0.50000000  0.64480000  0.67250000 -1.02500000
O        O    0.64480000  0.50000000  0.82750000 -1.02500000
O        O    0.35520000  0.50000000  0.17250000 -1.02500000
O        O    0.50000000  0.35520000  0.67250000 -1.02500000
O        O    0.35520000  0.50000000  0.82750000 -1.02500000
O        O    0.50000000  0.35520000  0.32750000 -1.02500000
O        O    0.64480000  0.50000000  0.17250000 -1.02500000
O        O    0.50000000  0.64480000  0.32750000 -1.02500000
