data_KFI

_cell_length_a  16.16956031
_cell_length_b  16.16956031
_cell_length_c  16.16956031
_cell_angle_alpha  109.47122063
_cell_angle_beta  109.47122063
_cell_angle_gamma  109.47122063


_symmetry_space_group_name_Hall ' P 1'
_symmetry_space_group_name_H-M  'P 1'
_symmetry_Int_Tables_number     1

loop_
_atom_site_label
_atom_site_type_symbol
_atom_site_fract_x
_atom_site_fract_y
_atom_site_fract_z
_atom_site_charge
Si       Si   0.76140000  0.88120000  0.28480000  0.00000000
Si       Si   0.59640000  0.71520000  0.47660000  0.00000000
Si       Si   0.52340000  0.11980000  0.23860000  0.00000000
Si       Si   0.88120000  0.11980000  0.59640000  0.00000000
Si       Si   0.40360000  0.88020000  0.11880000  0.00000000
Si       Si   0.47660000  0.88020000  0.76140000  0.00000000
Si       Si   0.28480000  0.52340000  0.40360000  0.00000000
Si       Si   0.11880000  0.88020000  0.40360000  0.00000000
Si       Si   0.28480000  0.40360000  0.52340000  0.00000000
Si       Si   0.88120000  0.76140000  0.28480000  0.00000000
Si       Si   0.23860000  0.11980000  0.52340000  0.00000000
Si       Si   0.71520000  0.11880000  0.23860000  0.00000000
Si       Si   0.11980000  0.88120000  0.59640000  0.00000000
Si       Si   0.23860000  0.71520000  0.11880000  0.00000000
Si       Si   0.59640000  0.11980000  0.88120000  0.00000000
Si       Si   0.76140000  0.47660000  0.88020000  0.00000000
Si       Si   0.71520000  0.59640000  0.47660000  0.00000000
Si       Si   0.88020000  0.76140000  0.47660000  0.00000000
Si       Si   0.23860000  0.11880000  0.71520000  0.00000000
Si       Si   0.11980000  0.23860000  0.52340000  0.00000000
Si       Si   0.28480000  0.88120000  0.76140000  0.00000000
Si       Si   0.11880000  0.23860000  0.71520000  0.00000000
Si       Si   0.40360000  0.52340000  0.28480000  0.00000000
Si       Si   0.59640000  0.88120000  0.11980000  0.00000000
Si       Si   0.11880000  0.40360000  0.88020000  0.00000000
Si       Si   0.28480000  0.76140000  0.88120000  0.00000000
Si       Si   0.88120000  0.28480000  0.76140000  0.00000000
Si       Si   0.88020000  0.47660000  0.76140000  0.00000000
Si       Si   0.88020000  0.40360000  0.11880000  0.00000000
Si       Si   0.76140000  0.88020000  0.47660000  0.00000000
Si       Si   0.76140000  0.28480000  0.88120000  0.00000000
Si       Si   0.47660000  0.59640000  0.71520000  0.00000000
Si       Si   0.71520000  0.23860000  0.11880000  0.00000000
Si       Si   0.40360000  0.28480000  0.52340000  0.00000000
Si       Si   0.52340000  0.23860000  0.11980000  0.00000000
Si       Si   0.59640000  0.47660000  0.71520000  0.00000000
Si       Si   0.40360000  0.11880000  0.88020000  0.00000000
Si       Si   0.11980000  0.59640000  0.88120000  0.00000000
Si       Si   0.47660000  0.71520000  0.59640000  0.00000000
Si       Si   0.52340000  0.40360000  0.28480000  0.00000000
Si       Si   0.11880000  0.71520000  0.23860000  0.00000000
Si       Si   0.23860000  0.52340000  0.11980000  0.00000000
Si       Si   0.88120000  0.59640000  0.11980000  0.00000000
Si       Si   0.88020000  0.11880000  0.40360000  0.00000000
Si       Si   0.47660000  0.76140000  0.88020000  0.00000000
Si       Si   0.71520000  0.47660000  0.59640000  0.00000000
Si       Si   0.52340000  0.28480000  0.40360000  0.00000000
Si       Si   0.11980000  0.52340000  0.23860000  0.00000000
O        O    0.44250000  1.00000000  0.18650000  0.00000000
O        O    0.25600000  0.44250000  0.44250000  0.00000000
O        O    0.81350000  0.81350000  0.25600000  0.00000000
O        O    0.18650000  1.00000000  0.44250000  0.00000000
O        O    0.25600000  0.81350000  0.81350000  0.00000000
O        O    0.81350000  0.00000000  0.55750000  0.00000000
O        O    0.81350000  0.25600000  0.81350000  0.00000000
O        O    0.74400000  0.18650000  0.18650000  0.00000000
O        O    0.55750000  0.55750000  0.74400000  0.00000000
O        O    0.00000000  0.81350000  0.55750000  0.00000000
O        O    0.44250000  0.18650000  1.00000000  0.00000000
O        O    0.00000000  0.55750000  0.81350000  0.00000000
O        O    0.55750000  0.74400000  0.55750000  0.00000000
O        O    0.44250000  0.44250000  0.25600000  0.00000000
O        O    0.55750000  0.00000000  0.81350000  0.00000000
O        O    0.18650000  0.18650000  0.74400000  0.00000000
O        O    0.18650000  0.74400000  0.18650000  0.00000000
O        O    0.18650000  0.44250000  0.00000000  0.00000000
O        O    0.81350000  0.55750000  1.00000000  0.00000000
O        O    0.00000000  0.18650000  0.44250000  0.00000000
O        O    0.55750000  0.81350000  1.00000000  0.00000000
O        O    0.74400000  0.55750000  0.55750000  0.00000000
O        O    0.44250000  0.25600000  0.44250000  0.00000000
O        O    0.00000000  0.44250000  0.18650000  0.00000000
O        O    0.66030000  0.00000000  0.15590000  0.00000000
O        O    0.50440000  0.66030000  0.66030000  0.00000000
O        O    0.84410000  0.84410000  0.50440000  0.00000000
O        O    0.15590000  1.00000000  0.66030000  0.00000000
O        O    0.50440000  0.84410000  0.84410000  0.00000000
O        O    0.84410000  0.00000000  0.33970000  0.00000000
O        O    0.84410000  0.50440000  0.84410000  0.00000000
O        O    0.49560000  0.15590000  0.15590000  0.00000000
O        O    0.33970000  0.33970000  0.49560000  0.00000000
O        O    0.00000000  0.84410000  0.33970000  0.00000000
O        O    0.66030000  0.15590000  1.00000000  0.00000000
O        O    0.00000000  0.33970000  0.84410000  0.00000000
O        O    0.33970000  0.49560000  0.33970000  0.00000000
O        O    0.66030000  0.66030000  0.50440000  0.00000000
O        O    0.33970000  0.00000000  0.84410000  0.00000000
O        O    0.15590000  0.15590000  0.49560000  0.00000000
O        O    0.15590000  0.49560000  0.15590000  0.00000000
O        O    0.15590000  0.66030000  0.00000000  0.00000000
O        O    0.84410000  0.33970000  1.00000000  0.00000000
O        O    0.00000000  0.15590000  0.66030000  0.00000000
O        O    0.33970000  0.84410000  1.00000000  0.00000000
O        O    0.49560000  0.33970000  0.33970000  0.00000000
O        O    0.66030000  0.50440000  0.66030000  0.00000000
O        O    1.00000000  0.66030000  0.15590000  0.00000000
O        O    0.82170000  0.66310000  0.48480000  0.00000000
O        O    0.66310000  0.84140000  0.17830000  0.00000000
O        O    0.84140000  0.17830000  0.66310000  0.00000000
O        O    0.66310000  0.82170000  0.48480000  0.00000000
O        O    0.17830000  0.84140000  0.66310000  0.00000000
O        O    0.17830000  0.33690000  0.51520000  0.00000000
O        O    0.33690000  0.17830000  0.51520000  0.00000000
O        O    0.66310000  0.48480000  0.82170000  0.00000000
O        O    0.15860000  0.33690000  0.82170000  0.00000000
O        O    0.17830000  0.66310000  0.84140000  0.00000000
O        O    0.51520000  0.33690000  0.17830000  0.00000000
O        O    0.48480000  0.82170000  0.66310000  0.00000000
O        O    0.66310000  0.17830000  0.84140000  0.00000000
O        O    0.15860000  0.82170000  0.33690000  0.00000000
O        O    0.33690000  0.82170000  0.15860000  0.00000000
O        O    0.33690000  0.51520000  0.17830000  0.00000000
O        O    0.82170000  0.15860000  0.33690000  0.00000000
O        O    0.48480000  0.66310000  0.82170000  0.00000000
O        O    0.33690000  0.15860000  0.82170000  0.00000000
O        O    0.82170000  0.48480000  0.66310000  0.00000000
O        O    0.82170000  0.33690000  0.15860000  0.00000000
O        O    0.51520000  0.17830000  0.33690000  0.00000000
O        O    0.84140000  0.66310000  0.17830000  0.00000000
O        O    0.17830000  0.51520000  0.33690000  0.00000000
O        O    0.35850000  0.64150000  0.50000000  0.00000000
O        O    0.71700000  0.85850000  0.35850000  0.00000000
O        O    0.85850000  0.71700000  0.35850000  0.00000000
O        O    0.28300000  0.14150000  0.64150000  0.00000000
O        O    0.35850000  0.85850000  0.71700000  0.00000000
O        O    0.14150000  0.64150000  0.28300000  0.00000000
O        O    0.35850000  0.71700000  0.85850000  0.00000000
O        O    0.14150000  0.85850000  0.50000000  0.00000000
O        O    0.85850000  0.14150000  0.50000000  0.00000000
O        O    0.64150000  0.14150000  0.28300000  0.00000000
O        O    0.35850000  0.50000000  0.64150000  0.00000000
O        O    0.50000000  0.14150000  0.85850000  0.00000000
O        O    0.64150000  0.28300000  0.14150000  0.00000000
O        O    0.85850000  0.35850000  0.71700000  0.00000000
O        O    0.64150000  0.35850000  0.50000000  0.00000000
O        O    0.28300000  0.64150000  0.14150000  0.00000000
O        O    0.14150000  0.50000000  0.85850000  0.00000000
O        O    0.71700000  0.35850000  0.85850000  0.00000000
O        O    0.14150000  0.28300000  0.64150000  0.00000000
O        O    0.50000000  0.85850000  0.14150000  0.00000000
O        O    0.50000000  0.64150000  0.35850000  0.00000000
O        O    0.64150000  0.50000000  0.35850000  0.00000000
O        O    0.50000000  0.35850000  0.64150000  0.00000000
O        O    0.85850000  0.50000000  0.14150000  0.00000000
