data_KFI

_cell_length_a  18.67100000
_cell_length_b  18.67100000
_cell_length_c  18.67100000
_cell_angle_alpha  90.00000000
_cell_angle_beta  90.00000000
_cell_angle_gamma  90.00000000


_symmetry_space_group_name_Hall ' P 1'
_symmetry_space_group_name_H-M  'P 1'
_symmetry_Int_Tables_number     1

loop_
_atom_site_label
_atom_site_type_symbol
_atom_site_fract_x
_atom_site_fract_y
_atom_site_fract_z
_atom_site_charge
Si       Si   0.32110000  0.91750000  0.79770000  2.05000000
Si       Si   0.08250000  0.32110000  0.20230000  2.05000000
Si       Si   0.29770000  0.17890000  0.58250000  2.05000000
Si       Si   0.29770000  0.82110000  0.58250000  2.05000000
Si       Si   0.41750000  0.17890000  0.70230000  2.05000000
Si       Si   0.20230000  0.32110000  0.91750000  2.05000000
Si       Si   0.58250000  0.82110000  0.70230000  2.05000000
Si       Si   0.79770000  0.91750000  0.67890000  2.05000000
Si       Si   0.79770000  0.32110000  0.08250000  2.05000000
Si       Si   0.20230000  0.67890000  0.91750000  2.05000000
Si       Si   0.91750000  0.79770000  0.67890000  2.05000000
Si       Si   0.32110000  0.79770000  0.91750000  2.05000000
Si       Si   0.08250000  0.67890000  0.79770000  2.05000000
Si       Si   0.20230000  0.08250000  0.67890000  2.05000000
Si       Si   0.29770000  0.58250000  0.82110000  2.05000000
Si       Si   0.08250000  0.67890000  0.20230000  2.05000000
Si       Si   0.58250000  0.82110000  0.29770000  2.05000000
Si       Si   0.82110000  0.41750000  0.70230000  2.05000000
Si       Si   0.08250000  0.20230000  0.32110000  2.05000000
Si       Si   0.91750000  0.20230000  0.32110000  2.05000000
Si       Si   0.67890000  0.08250000  0.20230000  2.05000000
Si       Si   0.58250000  0.29770000  0.17890000  2.05000000
Si       Si   0.79770000  0.91750000  0.32110000  2.05000000
Si       Si   0.17890000  0.70230000  0.58250000  2.05000000
Si       Si   0.17890000  0.41750000  0.29770000  2.05000000
Si       Si   0.32110000  0.08250000  0.79770000  2.05000000
Si       Si   0.67890000  0.20230000  0.91750000  2.05000000
Si       Si   0.91750000  0.79770000  0.32110000  2.05000000
Si       Si   0.79770000  0.32110000  0.91750000  2.05000000
Si       Si   0.70230000  0.41750000  0.82110000  2.05000000
Si       Si   0.41750000  0.70230000  0.17890000  2.05000000
Si       Si   0.41750000  0.82110000  0.70230000  2.05000000
Si       Si   0.29770000  0.41750000  0.82110000  2.05000000
Si       Si   0.91750000  0.32110000  0.79770000  2.05000000
Si       Si   0.20230000  0.91750000  0.32110000  2.05000000
Si       Si   0.82110000  0.70230000  0.58250000  2.05000000
Si       Si   0.70230000  0.58250000  0.17890000  2.05000000
Si       Si   0.41750000  0.29770000  0.17890000  2.05000000
Si       Si   0.58250000  0.17890000  0.29770000  2.05000000
Si       Si   0.08250000  0.79770000  0.67890000  2.05000000
Si       Si   0.08250000  0.20230000  0.67890000  2.05000000
Si       Si   0.91750000  0.67890000  0.79770000  2.05000000
Si       Si   0.67890000  0.79770000  0.08250000  2.05000000
Si       Si   0.82110000  0.58250000  0.70230000  2.05000000
Si       Si   0.91750000  0.32110000  0.20230000  2.05000000
Si       Si   0.17890000  0.29770000  0.58250000  2.05000000
Si       Si   0.41750000  0.70230000  0.82110000  2.05000000
Si       Si   0.32110000  0.20230000  0.08250000  2.05000000
Si       Si   0.17890000  0.70230000  0.41750000  2.05000000
Si       Si   0.17890000  0.41750000  0.70230000  2.05000000
Si       Si   0.58250000  0.29770000  0.82110000  2.05000000
Si       Si   0.70230000  0.82110000  0.58250000  2.05000000
Si       Si   0.41750000  0.17890000  0.29770000  2.05000000
Si       Si   0.58250000  0.70230000  0.82110000  2.05000000
Si       Si   0.08250000  0.79770000  0.32110000  2.05000000
Si       Si   0.17890000  0.29770000  0.41750000  2.05000000
Si       Si   0.70230000  0.82110000  0.41750000  2.05000000
Si       Si   0.08250000  0.32110000  0.79770000  2.05000000
Si       Si   0.67890000  0.20230000  0.08250000  2.05000000
Si       Si   0.32110000  0.91750000  0.20230000  2.05000000
Si       Si   0.20230000  0.67890000  0.08250000  2.05000000
Si       Si   0.58250000  0.17890000  0.70230000  2.05000000
Si       Si   0.17890000  0.58250000  0.29770000  2.05000000
Si       Si   0.82110000  0.29770000  0.58250000  2.05000000
Si       Si   0.79770000  0.08250000  0.32110000  2.05000000
Si       Si   0.70230000  0.41750000  0.17890000  2.05000000
Si       Si   0.41750000  0.82110000  0.29770000  2.05000000
Si       Si   0.20230000  0.91750000  0.67890000  2.05000000
Si       Si   0.82110000  0.58250000  0.29770000  2.05000000
Si       Si   0.32110000  0.20230000  0.91750000  2.05000000
Si       Si   0.91750000  0.67890000  0.20230000  2.05000000
Si       Si   0.67890000  0.91750000  0.20230000  2.05000000
Si       Si   0.70230000  0.58250000  0.82110000  2.05000000
Si       Si   0.41750000  0.29770000  0.82110000  2.05000000
Si       Si   0.67890000  0.08250000  0.79770000  2.05000000
Si       Si   0.67890000  0.79770000  0.91750000  2.05000000
Si       Si   0.67890000  0.91750000  0.79770000  2.05000000
Si       Si   0.82110000  0.70230000  0.41750000  2.05000000
Si       Si   0.70230000  0.17890000  0.58250000  2.05000000
Si       Si   0.20230000  0.08250000  0.32110000  2.05000000
Si       Si   0.17890000  0.58250000  0.70230000  2.05000000
Si       Si   0.79770000  0.67890000  0.91750000  2.05000000
Si       Si   0.58250000  0.70230000  0.17890000  2.05000000
Si       Si   0.32110000  0.08250000  0.20230000  2.05000000
Si       Si   0.91750000  0.20230000  0.67890000  2.05000000
Si       Si   0.82110000  0.41750000  0.29770000  2.05000000
Si       Si   0.29770000  0.17890000  0.41750000  2.05000000
Si       Si   0.20230000  0.32110000  0.08250000  2.05000000
Si       Si   0.32110000  0.79770000  0.08250000  2.05000000
Si       Si   0.70230000  0.17890000  0.41750000  2.05000000
Si       Si   0.29770000  0.82110000  0.41750000  2.05000000
Si       Si   0.29770000  0.58250000  0.17890000  2.05000000
Si       Si   0.82110000  0.29770000  0.41750000  2.05000000
Si       Si   0.79770000  0.08250000  0.67890000  2.05000000
Si       Si   0.79770000  0.67890000  0.08250000  2.05000000
Si       Si   0.29770000  0.41750000  0.17890000  2.05000000
O        O    0.37200000  0.18550000  0.62800000 -1.02500000
O        O    0.87200000  0.87200000  0.68550000 -1.02500000
O        O    0.31450000  0.87200000  0.87200000 -1.02500000
O        O    0.12800000  0.68550000  0.87200000 -1.02500000
O        O    0.87200000  0.87200000  0.31450000 -1.02500000
O        O    0.37200000  0.81450000  0.62800000 -1.02500000
O        O    0.87200000  0.31450000  0.87200000 -1.02500000
O        O    0.12800000  0.12800000  0.68550000 -1.02500000
O        O    0.81450000  0.62800000  0.62800000 -1.02500000
O        O    0.87200000  0.31450000  0.12800000 -1.02500000
O        O    0.37200000  0.62800000  0.81450000 -1.02500000
O        O    0.18550000  0.37200000  0.62800000 -1.02500000
O        O    0.62800000  0.37200000  0.81450000 -1.02500000
O        O    0.62800000  0.81450000  0.62800000 -1.02500000
O        O    0.12800000  0.87200000  0.31450000 -1.02500000
O        O    0.18550000  0.37200000  0.37200000 -1.02500000
O        O    0.62800000  0.81450000  0.37200000 -1.02500000
O        O    0.12800000  0.31450000  0.87200000 -1.02500000
O        O    0.68550000  0.12800000  0.12800000 -1.02500000
O        O    0.12800000  0.68550000  0.12800000 -1.02500000
O        O    0.18550000  0.62800000  0.37200000 -1.02500000
O        O    0.81450000  0.37200000  0.62800000 -1.02500000
O        O    0.87200000  0.12800000  0.31450000 -1.02500000
O        O    0.62800000  0.37200000  0.18550000 -1.02500000
O        O    0.12800000  0.87200000  0.68550000 -1.02500000
O        O    0.31450000  0.12800000  0.87200000 -1.02500000
O        O    0.68550000  0.87200000  0.12800000 -1.02500000
O        O    0.62800000  0.62800000  0.81450000 -1.02500000
O        O    0.37200000  0.37200000  0.81450000 -1.02500000
O        O    0.68550000  0.12800000  0.87200000 -1.02500000
O        O    0.68550000  0.87200000  0.87200000 -1.02500000
O        O    0.81450000  0.62800000  0.37200000 -1.02500000
O        O    0.62800000  0.18550000  0.62800000 -1.02500000
O        O    0.12800000  0.12800000  0.31450000 -1.02500000
O        O    0.18550000  0.62800000  0.62800000 -1.02500000
O        O    0.87200000  0.68550000  0.87200000 -1.02500000
O        O    0.62800000  0.62800000  0.18550000 -1.02500000
O        O    0.31450000  0.12800000  0.12800000 -1.02500000
O        O    0.37200000  0.18550000  0.37200000 -1.02500000
O        O    0.12800000  0.31450000  0.12800000 -1.02500000
O        O    0.31450000  0.87200000  0.12800000 -1.02500000
O        O    0.62800000  0.18550000  0.37200000 -1.02500000
O        O    0.37200000  0.81450000  0.37200000 -1.02500000
O        O    0.37200000  0.62800000  0.18550000 -1.02500000
O        O    0.81450000  0.37200000  0.37200000 -1.02500000
O        O    0.87200000  0.12800000  0.68550000 -1.02500000
O        O    0.87200000  0.68550000  0.12800000 -1.02500000
O        O    0.37200000  0.37200000  0.18550000 -1.02500000
O        O    0.24780000  0.09190000  0.75220000 -1.02500000
O        O    0.74780000  0.74780000  0.59190000 -1.02500000
O        O    0.40810000  0.74780000  0.74780000 -1.02500000
O        O    0.25220000  0.59190000  0.74780000 -1.02500000
O        O    0.74780000  0.74780000  0.40810000 -1.02500000
O        O    0.24780000  0.90810000  0.75220000 -1.02500000
O        O    0.74780000  0.40810000  0.74780000 -1.02500000
O        O    0.25220000  0.25220000  0.59190000 -1.02500000
O        O    0.90810000  0.75220000  0.75220000 -1.02500000
O        O    0.74780000  0.40810000  0.25220000 -1.02500000
O        O    0.24780000  0.75220000  0.90810000 -1.02500000
O        O    0.09190000  0.24780000  0.75220000 -1.02500000
O        O    0.75220000  0.24780000  0.90810000 -1.02500000
O        O    0.75220000  0.90810000  0.75220000 -1.02500000
O        O    0.25220000  0.74780000  0.40810000 -1.02500000
O        O    0.09190000  0.24780000  0.24780000 -1.02500000
O        O    0.75220000  0.90810000  0.24780000 -1.02500000
O        O    0.25220000  0.40810000  0.74780000 -1.02500000
O        O    0.59190000  0.25220000  0.25220000 -1.02500000
O        O    0.25220000  0.59190000  0.25220000 -1.02500000
O        O    0.09190000  0.75220000  0.24780000 -1.02500000
O        O    0.90810000  0.24780000  0.75220000 -1.02500000
O        O    0.74780000  0.25220000  0.40810000 -1.02500000
O        O    0.75220000  0.24780000  0.09190000 -1.02500000
O        O    0.25220000  0.74780000  0.59190000 -1.02500000
O        O    0.40810000  0.25220000  0.74780000 -1.02500000
O        O    0.59190000  0.74780000  0.25220000 -1.02500000
O        O    0.75220000  0.75220000  0.90810000 -1.02500000
O        O    0.24780000  0.24780000  0.90810000 -1.02500000
O        O    0.59190000  0.25220000  0.74780000 -1.02500000
O        O    0.59190000  0.74780000  0.74780000 -1.02500000
O        O    0.90810000  0.75220000  0.24780000 -1.02500000
O        O    0.75220000  0.09190000  0.75220000 -1.02500000
O        O    0.25220000  0.25220000  0.40810000 -1.02500000
O        O    0.09190000  0.75220000  0.75220000 -1.02500000
O        O    0.74780000  0.59190000  0.74780000 -1.02500000
O        O    0.75220000  0.75220000  0.09190000 -1.02500000
O        O    0.40810000  0.25220000  0.25220000 -1.02500000
O        O    0.24780000  0.09190000  0.24780000 -1.02500000
O        O    0.25220000  0.40810000  0.25220000 -1.02500000
O        O    0.40810000  0.74780000  0.25220000 -1.02500000
O        O    0.75220000  0.09190000  0.24780000 -1.02500000
O        O    0.24780000  0.90810000  0.24780000 -1.02500000
O        O    0.24780000  0.75220000  0.09190000 -1.02500000
O        O    0.90810000  0.24780000  0.24780000 -1.02500000
O        O    0.74780000  0.25220000  0.59190000 -1.02500000
O        O    0.74780000  0.59190000  0.25220000 -1.02500000
O        O    0.24780000  0.24780000  0.09190000 -1.02500000
O        O    0.00000000  0.17830000  0.33690000 -1.02500000
O        O    0.33690000  0.00000000  0.82170000 -1.02500000
O        O    0.82170000  0.33690000  0.00000000 -1.02500000
O        O    0.50000000  0.83690000  0.67830000 -1.02500000
O        O    0.32170000  0.50000000  0.83690000 -1.02500000
O        O    0.50000000  0.32170000  0.16310000 -1.02500000
O        O    0.00000000  0.82170000  0.66310000 -1.02500000
O        O    0.00000000  0.66310000  0.82170000 -1.02500000
O        O    0.83690000  0.50000000  0.67830000 -1.02500000
O        O    0.00000000  0.33690000  0.17830000 -1.02500000
O        O    0.16310000  0.67830000  0.50000000 -1.02500000
O        O    0.50000000  0.16310000  0.32170000 -1.02500000
O        O    0.50000000  0.67830000  0.83690000 -1.02500000
O        O    0.00000000  0.82170000  0.33690000 -1.02500000
O        O    0.16310000  0.32170000  0.50000000 -1.02500000
O        O    0.67830000  0.83690000  0.50000000 -1.02500000
O        O    0.00000000  0.33690000  0.82170000 -1.02500000
O        O    0.66310000  0.17830000  0.00000000 -1.02500000
O        O    0.17830000  0.66310000  0.00000000 -1.02500000
O        O    0.50000000  0.16310000  0.67830000 -1.02500000
O        O    0.16310000  0.50000000  0.32170000 -1.02500000
O        O    0.82170000  0.00000000  0.33690000 -1.02500000
O        O    0.67830000  0.50000000  0.16310000 -1.02500000
O        O    0.50000000  0.83690000  0.32170000 -1.02500000
O        O    0.17830000  0.00000000  0.66310000 -1.02500000
O        O    0.33690000  0.17830000  0.00000000 -1.02500000
O        O    0.00000000  0.66310000  0.17830000 -1.02500000
O        O    0.66310000  0.00000000  0.17830000 -1.02500000
O        O    0.67830000  0.50000000  0.83690000 -1.02500000
O        O    0.50000000  0.32170000  0.83690000 -1.02500000
O        O    0.66310000  0.82170000  0.00000000 -1.02500000
O        O    0.66310000  0.00000000  0.82170000 -1.02500000
O        O    0.83690000  0.67830000  0.50000000 -1.02500000
O        O    0.17830000  0.00000000  0.33690000 -1.02500000
O        O    0.16310000  0.50000000  0.67830000 -1.02500000
O        O    0.50000000  0.67830000  0.16310000 -1.02500000
O        O    0.33690000  0.00000000  0.17830000 -1.02500000
O        O    0.00000000  0.17830000  0.66310000 -1.02500000
O        O    0.83690000  0.50000000  0.32170000 -1.02500000
O        O    0.32170000  0.16310000  0.50000000 -1.02500000
O        O    0.17830000  0.33690000  0.00000000 -1.02500000
O        O    0.33690000  0.82170000  0.00000000 -1.02500000
O        O    0.67830000  0.16310000  0.50000000 -1.02500000
O        O    0.32170000  0.83690000  0.50000000 -1.02500000
O        O    0.83690000  0.32170000  0.50000000 -1.02500000
O        O    0.82170000  0.00000000  0.66310000 -1.02500000
O        O    0.82170000  0.66310000  0.00000000 -1.02500000
O        O    0.32170000  0.50000000  0.16310000 -1.02500000
O        O    0.75000000  0.89150000  0.60850000 -1.02500000
O        O    0.39150000  0.89150000  0.75000000 -1.02500000
O        O    0.39150000  0.75000000  0.89150000 -1.02500000
O        O    0.10850000  0.60850000  0.75000000 -1.02500000
O        O    0.75000000  0.89150000  0.39150000 -1.02500000
O        O    0.25000000  0.60850000  0.10850000 -1.02500000
O        O    0.39150000  0.25000000  0.89150000 -1.02500000
O        O    0.25000000  0.39150000  0.10850000 -1.02500000
O        O    0.75000000  0.10850000  0.39150000 -1.02500000
O        O    0.25000000  0.89150000  0.60850000 -1.02500000
O        O    0.25000000  0.10850000  0.60850000 -1.02500000
O        O    0.89150000  0.75000000  0.60850000 -1.02500000
O        O    0.75000000  0.39150000  0.10850000 -1.02500000
O        O    0.10850000  0.39150000  0.75000000 -1.02500000
O        O    0.25000000  0.60850000  0.89150000 -1.02500000
O        O    0.10850000  0.25000000  0.60850000 -1.02500000
O        O    0.75000000  0.39150000  0.89150000 -1.02500000
O        O    0.25000000  0.10850000  0.39150000 -1.02500000
O        O    0.75000000  0.60850000  0.89150000 -1.02500000
O        O    0.60850000  0.89150000  0.25000000 -1.02500000
O        O    0.10850000  0.60850000  0.25000000 -1.02500000
O        O    0.10850000  0.75000000  0.39150000 -1.02500000
O        O    0.89150000  0.39150000  0.75000000 -1.02500000
O        O    0.60850000  0.25000000  0.10850000 -1.02500000
O        O    0.25000000  0.89150000  0.39150000 -1.02500000
O        O    0.89150000  0.75000000  0.39150000 -1.02500000
O        O    0.39150000  0.10850000  0.75000000 -1.02500000
O        O    0.60850000  0.75000000  0.10850000 -1.02500000
O        O    0.25000000  0.39150000  0.89150000 -1.02500000
O        O    0.60850000  0.25000000  0.89150000 -1.02500000
O        O    0.60850000  0.89150000  0.75000000 -1.02500000
O        O    0.60850000  0.75000000  0.89150000 -1.02500000
O        O    0.60850000  0.10850000  0.75000000 -1.02500000
O        O    0.10850000  0.25000000  0.39150000 -1.02500000
O        O    0.10850000  0.75000000  0.60850000 -1.02500000
O        O    0.89150000  0.60850000  0.75000000 -1.02500000
O        O    0.75000000  0.60850000  0.10850000 -1.02500000
O        O    0.75000000  0.10850000  0.60850000 -1.02500000
O        O    0.89150000  0.25000000  0.39150000 -1.02500000
O        O    0.39150000  0.10850000  0.25000000 -1.02500000
O        O    0.10850000  0.39150000  0.25000000 -1.02500000
O        O    0.60850000  0.10850000  0.25000000 -1.02500000
O        O    0.39150000  0.89150000  0.25000000 -1.02500000
O        O    0.39150000  0.75000000  0.10850000 -1.02500000
O        O    0.89150000  0.39150000  0.25000000 -1.02500000
O        O    0.89150000  0.25000000  0.60850000 -1.02500000
O        O    0.89150000  0.60850000  0.25000000 -1.02500000
O        O    0.39150000  0.25000000  0.10850000 -1.02500000
