data_LAU

_cell_length_a  9.92561213
_cell_length_b  9.92561213
_cell_length_c  7.54210000
_cell_angle_alpha  74.93715210
_cell_angle_beta  74.93715210
_cell_angle_gamma  83.12091519


_symmetry_space_group_name_Hall ' P 1'
_symmetry_space_group_name_H-M  'P 1'
_symmetry_Int_Tables_number     1

loop_
_atom_site_label
_atom_site_type_symbol
_atom_site_fract_x
_atom_site_fract_y
_atom_site_fract_z
_atom_site_charge
Si       Si   0.14700000  0.37940000  0.15600000  0.00000000
Si       Si   0.85300000  0.62060000  0.84400000  0.00000000
Si       Si   0.62060000  0.85300000  0.84400000  0.00000000
Si       Si   0.37940000  0.14700000  0.15600000  0.00000000
Si       Si   0.30710000  0.54030000  0.32500000  0.00000000
Si       Si   0.69290000  0.45970000  0.67500000  0.00000000
Si       Si   0.45970000  0.69290000  0.67500000  0.00000000
Si       Si   0.54030000  0.30710000  0.32500000  0.00000000
Al       Al   0.17650000  0.56050000  0.73700000  0.00000000
Al       Al   0.82350000  0.43950000  0.26300000  0.00000000
Al       Al   0.43950000  0.82350000  0.26300000  0.00000000
Al       Al   0.56050000  0.17650000  0.73700000  0.00000000
O        O    0.76000000  0.76000000  0.78100000  0.00000000
O        O    0.24000000  0.24000000  0.21900000  0.00000000
O        O    0.16600000  0.41720000  0.91900000  0.00000000
O        O    0.83400000  0.58280000  0.08100000  0.00000000
O        O    0.58280000  0.83400000  0.08100000  0.00000000
O        O    0.41720000  0.16600000  0.91900000  0.00000000
O        O    0.24540000  0.47780000  0.55200000  0.00000000
O        O    0.75460000  0.52220000  0.44800000  0.00000000
O        O    0.52220000  0.75460000  0.44800000  0.00000000
O        O    0.47780000  0.24540000  0.55200000  0.00000000
O        O    0.19940000  0.50860000  0.20300000  0.00000000
O        O    0.80060000  0.49140000  0.79700000  0.00000000
O        O    0.49140000  0.80060000  0.79700000  0.00000000
O        O    0.50860000  0.19940000  0.20300000  0.00000000
O        O    0.99800000  0.36100000  0.24800000  0.00000000
O        O    0.00200000  0.63900000  0.75200000  0.00000000
O        O    0.63900000  0.00200000  0.75200000  0.00000000
O        O    0.36100000  0.99800000  0.24800000  0.00000000
O        O    0.54300000  0.54300000  0.73300000  0.00000000
O        O    0.45700000  0.45700000  0.26700000  0.00000000
O        O    0.29530000  0.67870000  0.74300000  0.00000000
O        O    0.70470000  0.32130000  0.25700000  0.00000000
O        O    0.32130000  0.70470000  0.25700000  0.00000000
O        O    0.67870000  0.29530000  0.74300000  0.00000000
