data_LAU

_cell_length_a  14.85380000
_cell_length_b  13.16950000
_cell_length_c  7.54210000
_cell_angle_alpha  90.00000000
_cell_angle_beta  110.32300000
_cell_angle_gamma  90.00000000


_symmetry_space_group_name_Hall ' P 1'
_symmetry_space_group_name_H-M  'P 1'
_symmetry_Int_Tables_number     1

loop_
_atom_site_label
_atom_site_type_symbol
_atom_site_fract_x
_atom_site_fract_y
_atom_site_fract_z
_atom_site_charge
Si       Si   0.76320000  0.38380000  0.84400000  2.05000000
Si       Si   0.23680000  0.61620000  0.15600000  2.05000000
Si       Si   0.23680000  0.38380000  0.15600000  2.05000000
Si       Si   0.73680000  0.11620000  0.15600000  2.05000000
Si       Si   0.76320000  0.61620000  0.84400000  2.05000000
Si       Si   0.26320000  0.11620000  0.84400000  2.05000000
Si       Si   0.26320000  0.88380000  0.84400000  2.05000000
Si       Si   0.73680000  0.88380000  0.15600000  2.05000000
Si       Si   0.92370000  0.38340000  0.67500000  2.05000000
Si       Si   0.07630000  0.61660000  0.32500000  2.05000000
Si       Si   0.07630000  0.38340000  0.32500000  2.05000000
Si       Si   0.57630000  0.11660000  0.32500000  2.05000000
Si       Si   0.92370000  0.61660000  0.67500000  2.05000000
Si       Si   0.42370000  0.11660000  0.67500000  2.05000000
Si       Si   0.42370000  0.88340000  0.67500000  2.05000000
Si       Si   0.57630000  0.88340000  0.32500000  2.05000000
Al       Al   0.86850000  0.30800000  0.26300000  1.75000000
Al       Al   0.13150000  0.69200000  0.73700000  1.75000000
Al       Al   0.13150000  0.30800000  0.73700000  1.75000000
Al       Al   0.63150000  0.19200000  0.73700000  1.75000000
Al       Al   0.86850000  0.69200000  0.26300000  1.75000000
Al       Al   0.36850000  0.19200000  0.26300000  1.75000000
Al       Al   0.36850000  0.80800000  0.26300000  1.75000000
Al       Al   0.63150000  0.80800000  0.73700000  1.75000000
O        O    0.26000000  0.50000000  0.21900000 -1.02500000
O        O    0.74000000  0.50000000  0.78100000 -1.02500000
O        O    0.24000000  0.00000000  0.78100000 -1.02500000
O        O    0.76000000  0.00000000  0.21900000 -1.02500000
O        O    0.79160000  0.37440000  0.08100000 -1.02500000
O        O    0.20840000  0.62560000  0.91900000 -1.02500000
O        O    0.20840000  0.37440000  0.91900000 -1.02500000
O        O    0.70840000  0.12560000  0.91900000 -1.02500000
O        O    0.79160000  0.62560000  0.08100000 -1.02500000
O        O    0.29160000  0.12560000  0.08100000 -1.02500000
O        O    0.29160000  0.87440000  0.08100000 -1.02500000
O        O    0.70840000  0.87440000  0.91900000 -1.02500000
O        O    0.86160000  0.38380000  0.44800000 -1.02500000
O        O    0.13840000  0.61620000  0.55200000 -1.02500000
O        O    0.13840000  0.38380000  0.55200000 -1.02500000
O        O    0.63840000  0.11620000  0.55200000 -1.02500000
O        O    0.86160000  0.61620000  0.44800000 -1.02500000
O        O    0.36160000  0.11620000  0.44800000 -1.02500000
O        O    0.36160000  0.88380000  0.44800000 -1.02500000
O        O    0.63840000  0.88380000  0.55200000 -1.02500000
O        O    0.85400000  0.34540000  0.79700000 -1.02500000
O        O    0.14600000  0.65460000  0.20300000 -1.02500000
O        O    0.14600000  0.34540000  0.20300000 -1.02500000
O        O    0.64600000  0.15460000  0.20300000 -1.02500000
O        O    0.85400000  0.65460000  0.79700000 -1.02500000
O        O    0.35400000  0.15460000  0.79700000 -1.02500000
O        O    0.35400000  0.84540000  0.79700000 -1.02500000
O        O    0.64600000  0.84540000  0.20300000 -1.02500000
O        O    0.67950000  0.31850000  0.75200000 -1.02500000
O        O    0.32050000  0.68150000  0.24800000 -1.02500000
O        O    0.32050000  0.31850000  0.24800000 -1.02500000
O        O    0.82050000  0.18150000  0.24800000 -1.02500000
O        O    0.67950000  0.68150000  0.75200000 -1.02500000
O        O    0.17950000  0.18150000  0.75200000 -1.02500000
O        O    0.17950000  0.81850000  0.75200000 -1.02500000
O        O    0.82050000  0.81850000  0.24800000 -1.02500000
O        O    0.04300000  0.50000000  0.26700000 -1.02500000
O        O    0.95700000  0.50000000  0.73300000 -1.02500000
O        O    0.45700000  0.00000000  0.73300000 -1.02500000
O        O    0.54300000  0.00000000  0.26700000 -1.02500000
O        O    0.98700000  0.30830000  0.25700000 -1.02500000
O        O    0.01300000  0.69170000  0.74300000 -1.02500000
O        O    0.01300000  0.30830000  0.74300000 -1.02500000
O        O    0.51300000  0.19170000  0.74300000 -1.02500000
O        O    0.98700000  0.69170000  0.25700000 -1.02500000
O        O    0.48700000  0.19170000  0.25700000 -1.02500000
O        O    0.48700000  0.80830000  0.25700000 -1.02500000
O        O    0.51300000  0.80830000  0.74300000 -1.02500000
