data_LEV

_cell_length_a  10.86968735
_cell_length_b  10.86968735
_cell_length_c  10.86968735
_cell_angle_alpha  75.69198156
_cell_angle_beta  75.69198156
_cell_angle_gamma  75.69198156


_symmetry_space_group_name_Hall ' P 1'
_symmetry_space_group_name_H-M  'P 1'
_symmetry_Int_Tables_number     1

loop_
_atom_site_label
_atom_site_type_symbol
_atom_site_fract_x
_atom_site_fract_y
_atom_site_fract_z
_atom_site_charge
Si       Si   0.30180000  0.06980000  0.83750000  0.00000000
Si       Si   0.16250000  0.69820000  0.93020000  0.00000000
Si       Si   0.69820000  0.16250000  0.93020000  0.00000000
Si       Si   0.83750000  0.06980000  0.30180000  0.00000000
Si       Si   0.06980000  0.30180000  0.83750000  0.00000000
Si       Si   0.06980000  0.83750000  0.30180000  0.00000000
Si       Si   0.93020000  0.69820000  0.16250000  0.00000000
Si       Si   0.30180000  0.83750000  0.06980000  0.00000000
Si       Si   0.93020000  0.16250000  0.69820000  0.00000000
Si       Si   0.83750000  0.30180000  0.06980000  0.00000000
Si       Si   0.16250000  0.93020000  0.69820000  0.00000000
Si       Si   0.69820000  0.93020000  0.16250000  0.00000000
Si       Si   0.50000000  0.73960000  0.26040000  0.00000000
Si       Si   0.73960000  0.50000000  0.26040000  0.00000000
Si       Si   0.26040000  0.73960000  0.50000000  0.00000000
Si       Si   0.73960000  0.26040000  0.50000000  0.00000000
Si       Si   0.50000000  0.26040000  0.73960000  0.00000000
Si       Si   0.26040000  0.50000000  0.73960000  0.00000000
O        O    0.42330000  0.14180000  0.75860000  0.00000000
O        O    0.24140000  0.57670000  0.85820000  0.00000000
O        O    0.57670000  0.24140000  0.85820000  0.00000000
O        O    0.75860000  0.14180000  0.42330000  0.00000000
O        O    0.14180000  0.42330000  0.75860000  0.00000000
O        O    0.14180000  0.75860000  0.42330000  0.00000000
O        O    0.85820000  0.57670000  0.24140000  0.00000000
O        O    0.42330000  0.75860000  0.14180000  0.00000000
O        O    0.85820000  0.24140000  0.57670000  0.00000000
O        O    0.75860000  0.42330000  0.14180000  0.00000000
O        O    0.24140000  0.85820000  0.57670000  0.00000000
O        O    0.57670000  0.85820000  0.24140000  0.00000000
O        O    0.17470000  0.17470000  0.89870000  0.00000000
O        O    0.82530000  0.10130000  0.82530000  0.00000000
O        O    0.89870000  0.17470000  0.17470000  0.00000000
O        O    0.17470000  0.89870000  0.17470000  0.00000000
O        O    0.82530000  0.82530000  0.10130000  0.00000000
O        O    0.10130000  0.82530000  0.82530000  0.00000000
O        O    0.03650000  0.03650000  0.65400000  0.00000000
O        O    0.96350000  0.34600000  0.96350000  0.00000000
O        O    0.65400000  0.03650000  0.03650000  0.00000000
O        O    0.03650000  0.65400000  0.03650000  0.00000000
O        O    0.96350000  0.96350000  0.34600000  0.00000000
O        O    0.34600000  0.96350000  0.96350000  0.00000000
O        O    0.00000000  0.26430000  0.73570000  0.00000000
O        O    0.26430000  1.00000000  0.73570000  0.00000000
O        O    0.73570000  0.26430000  0.00000000  0.00000000
O        O    0.26430000  0.73570000  0.00000000  0.00000000
O        O    0.00000000  0.73570000  0.26430000  0.00000000
O        O    0.73570000  1.00000000  0.26430000  0.00000000
O        O    0.40120000  0.40120000  0.73550000  0.00000000
O        O    0.59880000  0.26450000  0.59880000  0.00000000
O        O    0.73550000  0.40120000  0.40120000  0.00000000
O        O    0.40120000  0.73550000  0.40120000  0.00000000
O        O    0.59880000  0.59880000  0.26450000  0.00000000
O        O    0.26450000  0.59880000  0.59880000  0.00000000
