data_LTL_SI

_cell_length_a  18.46600000
_cell_length_b  18.46600000
_cell_length_c  7.47630000
_cell_angle_alpha  90.00000000
_cell_angle_beta  90.00000000
_cell_angle_gamma  120.00000000


_symmetry_space_group_name_Hall ' P 1'
_symmetry_space_group_name_H-M  'P 1'
_symmetry_Int_Tables_number     1

loop_
_atom_site_label
_atom_site_type_symbol
_atom_site_fract_x
_atom_site_fract_y
_atom_site_fract_z
_atom_site_charge
Si       Si   0.64160000  0.90570000  0.50000000  2.05000000
Si       Si   0.73590000  0.09430000  0.50000000  2.05000000
Si       Si   0.26410000  0.90570000  0.50000000  2.05000000
Si       Si   0.90570000  0.64160000  0.50000000  2.05000000
Si       Si   0.64160000  0.73590000  0.50000000  2.05000000
Si       Si   0.35840000  0.09430000  0.50000000  2.05000000
Si       Si   0.26410000  0.35840000  0.50000000  2.05000000
Si       Si   0.09430000  0.35840000  0.50000000  2.05000000
Si       Si   0.73590000  0.64160000  0.50000000  2.05000000
Si       Si   0.90570000  0.26410000  0.50000000  2.05000000
Si       Si   0.35840000  0.26410000  0.50000000  2.05000000
Si       Si   0.09430000  0.73590000  0.50000000  2.05000000
Si       Si   0.50110000  0.83400000  0.21210000  2.05000000
Si       Si   0.66710000  0.16600000  0.78790000  2.05000000
Si       Si   0.50110000  0.83400000  0.78790000  2.05000000
Si       Si   0.83400000  0.50110000  0.78790000  2.05000000
Si       Si   0.33290000  0.83400000  0.78790000  2.05000000
Si       Si   0.66710000  0.16600000  0.21210000  2.05000000
Si       Si   0.50110000  0.66710000  0.21210000  2.05000000
Si       Si   0.66710000  0.50110000  0.78790000  2.05000000
Si       Si   0.33290000  0.83400000  0.21210000  2.05000000
Si       Si   0.83400000  0.33290000  0.78790000  2.05000000
Si       Si   0.83400000  0.50110000  0.21210000  2.05000000
Si       Si   0.49890000  0.16600000  0.78790000  2.05000000
Si       Si   0.50110000  0.66710000  0.78790000  2.05000000
Si       Si   0.16600000  0.49890000  0.21210000  2.05000000
Si       Si   0.33290000  0.49890000  0.21210000  2.05000000
Si       Si   0.16600000  0.66710000  0.21210000  2.05000000
Si       Si   0.49890000  0.16600000  0.21210000  2.05000000
Si       Si   0.33290000  0.49890000  0.78790000  2.05000000
Si       Si   0.16600000  0.49890000  0.78790000  2.05000000
Si       Si   0.49890000  0.33290000  0.78790000  2.05000000
Si       Si   0.66710000  0.50110000  0.21210000  2.05000000
Si       Si   0.83400000  0.33290000  0.21210000  2.05000000
Si       Si   0.49890000  0.33290000  0.21210000  2.05000000
Si       Si   0.16600000  0.66710000  0.78790000  2.05000000
O        O    0.72460000  0.00000000  0.50000000 -1.02500000
O        O    0.27540000  0.00000000  0.50000000 -1.02500000
O        O    0.72460000  0.72460000  0.50000000 -1.02500000
O        O    0.00000000  0.27540000  0.50000000 -1.02500000
O        O    0.27540000  0.27540000  0.50000000 -1.02500000
O        O    0.00000000  0.72460000  0.50000000 -1.02500000
O        O    0.66820000  0.83410000  0.50000000 -1.02500000
O        O    0.16590000  0.33180000  0.50000000 -1.02500000
O        O    0.83410000  0.66820000  0.50000000 -1.02500000
O        O    0.83410000  0.16590000  0.50000000 -1.02500000
O        O    0.33180000  0.16590000  0.50000000 -1.02500000
O        O    0.16590000  0.83410000  0.50000000 -1.02500000
O        O    0.46860000  0.73430000  0.25600000 -1.02500000
O        O    0.73430000  0.46860000  0.74400000 -1.02500000
O        O    0.73430000  0.26570000  0.74400000 -1.02500000
O        O    0.46860000  0.73430000  0.74400000 -1.02500000
O        O    0.26570000  0.53140000  0.25600000 -1.02500000
O        O    0.26570000  0.73430000  0.25600000 -1.02500000
O        O    0.26570000  0.53140000  0.74400000 -1.02500000
O        O    0.53140000  0.26570000  0.74400000 -1.02500000
O        O    0.73430000  0.46860000  0.25600000 -1.02500000
O        O    0.73430000  0.26570000  0.25600000 -1.02500000
O        O    0.53140000  0.26570000  0.25600000 -1.02500000
O        O    0.26570000  0.73430000  0.74400000 -1.02500000
O        O    0.58580000  0.89780000  0.31830000 -1.02500000
O        O    0.68800000  0.10220000  0.68170000 -1.02500000
O        O    0.58580000  0.89780000  0.68170000 -1.02500000
O        O    0.89780000  0.58580000  0.68170000 -1.02500000
O        O    0.31200000  0.89780000  0.68170000 -1.02500000
O        O    0.68800000  0.10220000  0.31830000 -1.02500000
O        O    0.58580000  0.68800000  0.31830000 -1.02500000
O        O    0.68800000  0.58580000  0.68170000 -1.02500000
O        O    0.31200000  0.89780000  0.31830000 -1.02500000
O        O    0.89780000  0.31200000  0.68170000 -1.02500000
O        O    0.89780000  0.58580000  0.31830000 -1.02500000
O        O    0.41420000  0.10220000  0.68170000 -1.02500000
O        O    0.58580000  0.68800000  0.68170000 -1.02500000
O        O    0.10220000  0.41420000  0.31830000 -1.02500000
O        O    0.31200000  0.41420000  0.31830000 -1.02500000
O        O    0.10220000  0.68800000  0.31830000 -1.02500000
O        O    0.41420000  0.10220000  0.31830000 -1.02500000
O        O    0.31200000  0.41420000  0.68170000 -1.02500000
O        O    0.10220000  0.41420000  0.68170000 -1.02500000
O        O    0.41420000  0.31200000  0.68170000 -1.02500000
O        O    0.68800000  0.58580000  0.31830000 -1.02500000
O        O    0.89780000  0.31200000  0.31830000 -1.02500000
O        O    0.41420000  0.31200000  0.31830000 -1.02500000
O        O    0.10220000  0.68800000  0.68170000 -1.02500000
O        O    0.14980000  0.57490000  0.27510000 -1.02500000
O        O    0.57490000  0.14980000  0.72490000 -1.02500000
O        O    0.57490000  0.42510000  0.72490000 -1.02500000
O        O    0.14980000  0.57490000  0.72490000 -1.02500000
O        O    0.42510000  0.85020000  0.27510000 -1.02500000
O        O    0.42510000  0.57490000  0.27510000 -1.02500000
O        O    0.42510000  0.85020000  0.72490000 -1.02500000
O        O    0.85020000  0.42510000  0.72490000 -1.02500000
O        O    0.57490000  0.14980000  0.27510000 -1.02500000
O        O    0.57490000  0.42510000  0.27510000 -1.02500000
O        O    0.85020000  0.42510000  0.27510000 -1.02500000
O        O    0.42510000  0.57490000  0.72490000 -1.02500000
O        O    0.52280000  0.85580000  0.00000000 -1.02500000
O        O    0.66700000  0.14420000  0.00000000 -1.02500000
O        O    0.33300000  0.85580000  0.00000000 -1.02500000
O        O    0.85580000  0.52280000  0.00000000 -1.02500000
O        O    0.52280000  0.66700000  0.00000000 -1.02500000
O        O    0.47720000  0.14420000  0.00000000 -1.02500000
O        O    0.33300000  0.47720000  0.00000000 -1.02500000
O        O    0.14420000  0.47720000  0.00000000 -1.02500000
O        O    0.66700000  0.52280000  0.00000000 -1.02500000
O        O    0.85580000  0.33300000  0.00000000 -1.02500000
O        O    0.47720000  0.33300000  0.00000000 -1.02500000
O        O    0.14420000  0.66700000  0.00000000 -1.02500000
