data_MAZ

_cell_length_a  18.39200000
_cell_length_b  18.39200000
_cell_length_c  7.64600000
_cell_angle_alpha  90.00000000
_cell_angle_beta  90.00000000
_cell_angle_gamma  120.00000000


_symmetry_space_group_name_Hall ' P 1'
_symmetry_space_group_name_H-M  'P 1'
_symmetry_Int_Tables_number     1

loop_
_atom_site_label
_atom_site_type_symbol
_atom_site_fract_x
_atom_site_fract_y
_atom_site_fract_z
_atom_site_charge
Si       Si   0.66820000  0.50980000  0.75000000  2.05000000
Si       Si   0.15840000  0.66820000  0.25000000  2.05000000
Si       Si   0.84160000  0.50980000  0.75000000  2.05000000
Si       Si   0.15840000  0.49020000  0.25000000  2.05000000
Si       Si   0.50980000  0.66820000  0.25000000  2.05000000
Si       Si   0.49020000  0.15840000  0.75000000  2.05000000
Si       Si   0.66820000  0.15840000  0.75000000  2.05000000
Si       Si   0.33180000  0.49020000  0.25000000  2.05000000
Si       Si   0.49020000  0.33180000  0.75000000  2.05000000
Si       Si   0.33180000  0.84160000  0.25000000  2.05000000
Si       Si   0.50980000  0.84160000  0.25000000  2.05000000
Si       Si   0.84160000  0.33180000  0.75000000  2.05000000
Si       Si   0.26030000  0.90670000  0.54440000  2.05000000
Si       Si   0.90670000  0.64640000  0.04440000  2.05000000
Si       Si   0.26030000  0.35360000  0.95560000  2.05000000
Si       Si   0.35360000  0.26030000  0.45560000  2.05000000
Si       Si   0.64640000  0.90670000  0.95560000  2.05000000
Si       Si   0.35360000  0.09330000  0.45560000  2.05000000
Si       Si   0.90670000  0.26030000  0.04440000  2.05000000
Si       Si   0.64640000  0.73970000  0.95560000  2.05000000
Si       Si   0.26030000  0.90670000  0.95560000  2.05000000
Si       Si   0.73970000  0.64640000  0.04440000  2.05000000
Si       Si   0.09330000  0.35360000  0.95560000  2.05000000
Si       Si   0.73970000  0.09330000  0.04440000  2.05000000
Si       Si   0.35360000  0.26030000  0.04440000  2.05000000
Si       Si   0.64640000  0.90670000  0.54440000  2.05000000
Si       Si   0.35360000  0.09330000  0.04440000  2.05000000
Si       Si   0.90670000  0.26030000  0.45560000  2.05000000
Si       Si   0.09330000  0.35360000  0.54440000  2.05000000
Si       Si   0.26030000  0.35360000  0.54440000  2.05000000
Si       Si   0.09330000  0.73970000  0.54440000  2.05000000
Si       Si   0.73970000  0.09330000  0.45560000  2.05000000
Si       Si   0.09330000  0.73970000  0.95560000  2.05000000
Si       Si   0.73970000  0.64640000  0.45560000  2.05000000
Si       Si   0.90670000  0.64640000  0.45560000  2.05000000
Si       Si   0.64640000  0.73970000  0.54440000  2.05000000
O        O    0.74110000  0.48220000  0.75000000 -1.02500000
O        O    0.25890000  0.51780000  0.25000000 -1.02500000
O        O    0.51780000  0.25890000  0.75000000 -1.02500000
O        O    0.25890000  0.74110000  0.25000000 -1.02500000
O        O    0.48220000  0.74110000  0.25000000 -1.02500000
O        O    0.74110000  0.25890000  0.75000000 -1.02500000
O        O    0.57510000  0.15020000  0.75000000 -1.02500000
O        O    0.42490000  0.84980000  0.25000000 -1.02500000
O        O    0.84980000  0.42490000  0.75000000 -1.02500000
O        O    0.42490000  0.57510000  0.25000000 -1.02500000
O        O    0.15020000  0.57510000  0.25000000 -1.02500000
O        O    0.57510000  0.42490000  0.75000000 -1.02500000
O        O    0.28180000  0.89960000  0.75000000 -1.02500000
O        O    0.38220000  0.28180000  0.25000000 -1.02500000
O        O    0.61780000  0.89960000  0.75000000 -1.02500000
O        O    0.38220000  0.10040000  0.25000000 -1.02500000
O        O    0.89960000  0.28180000  0.25000000 -1.02500000
O        O    0.10040000  0.38220000  0.75000000 -1.02500000
O        O    0.28180000  0.38220000  0.75000000 -1.02500000
O        O    0.71820000  0.10040000  0.25000000 -1.02500000
O        O    0.10040000  0.71820000  0.75000000 -1.02500000
O        O    0.71820000  0.61780000  0.25000000 -1.02500000
O        O    0.89960000  0.61780000  0.25000000 -1.02500000
O        O    0.61780000  0.71820000  0.75000000 -1.02500000
O        O    0.32380000  0.88860000  0.42790000 -1.02500000
O        O    0.88860000  0.56480000  0.92790000 -1.02500000
O        O    0.32380000  0.43520000  0.07210000 -1.02500000
O        O    0.43520000  0.32380000  0.57210000 -1.02500000
O        O    0.56480000  0.88860000  0.07210000 -1.02500000
O        O    0.43520000  0.11140000  0.57210000 -1.02500000
O        O    0.88860000  0.32380000  0.92790000 -1.02500000
O        O    0.56480000  0.67620000  0.07210000 -1.02500000
O        O    0.32380000  0.88860000  0.07210000 -1.02500000
O        O    0.67620000  0.56480000  0.92790000 -1.02500000
O        O    0.11140000  0.43520000  0.07210000 -1.02500000
O        O    0.67620000  0.11140000  0.92790000 -1.02500000
O        O    0.43520000  0.32380000  0.92790000 -1.02500000
O        O    0.56480000  0.88860000  0.42790000 -1.02500000
O        O    0.43520000  0.11140000  0.92790000 -1.02500000
O        O    0.88860000  0.32380000  0.57210000 -1.02500000
O        O    0.11140000  0.43520000  0.42790000 -1.02500000
O        O    0.32380000  0.43520000  0.42790000 -1.02500000
O        O    0.11140000  0.67620000  0.42790000 -1.02500000
O        O    0.67620000  0.11140000  0.57210000 -1.02500000
O        O    0.11140000  0.67620000  0.07210000 -1.02500000
O        O    0.67620000  0.56480000  0.57210000 -1.02500000
O        O    0.88860000  0.56480000  0.57210000 -1.02500000
O        O    0.56480000  0.67620000  0.42790000 -1.02500000
O        O    0.67720000  0.83860000  0.99840000 -1.02500000
O        O    0.83860000  0.16140000  0.00160000 -1.02500000
O        O    0.83860000  0.67720000  0.00160000 -1.02500000
O        O    0.16140000  0.83860000  0.99840000 -1.02500000
O        O    0.83860000  0.67720000  0.49840000 -1.02500000
O        O    0.16140000  0.32280000  0.99840000 -1.02500000
O        O    0.32280000  0.16140000  0.49840000 -1.02500000
O        O    0.16140000  0.32280000  0.50160000 -1.02500000
O        O    0.32280000  0.16140000  0.00160000 -1.02500000
O        O    0.16140000  0.83860000  0.50160000 -1.02500000
O        O    0.67720000  0.83860000  0.50160000 -1.02500000
O        O    0.83860000  0.16140000  0.49840000 -1.02500000
O        O    0.27410000  0.00000000  0.50000000 -1.02500000
O        O    0.72590000  0.72590000  0.00000000 -1.02500000
O        O    0.00000000  0.27410000  0.00000000 -1.02500000
O        O    0.72590000  0.00000000  0.00000000 -1.02500000
O        O    0.27410000  0.27410000  0.00000000 -1.02500000
O        O    0.27410000  0.00000000  0.00000000 -1.02500000
O        O    0.00000000  0.27410000  0.50000000 -1.02500000
O        O    0.27410000  0.27410000  0.50000000 -1.02500000
O        O    0.72590000  0.00000000  0.50000000 -1.02500000
O        O    0.00000000  0.72590000  0.00000000 -1.02500000
O        O    0.00000000  0.72590000  0.50000000 -1.02500000
O        O    0.72590000  0.72590000  0.50000000 -1.02500000
