data_MEL

_cell_length_a  15.69413823
_cell_length_b  15.69413823
_cell_length_c  15.69413823
_cell_angle_alpha  100.51846140
_cell_angle_beta  100.51846140
_cell_angle_gamma  129.41222206


_symmetry_space_group_name_Hall ' P 1'
_symmetry_space_group_name_H-M  'P 1'
_symmetry_Int_Tables_number     1

loop_
_atom_site_label
_atom_site_type_symbol
_atom_site_fract_x
_atom_site_fract_y
_atom_site_fract_z
_atom_site_charge
Si       Si   0.92230000  0.92230000  0.84460000  0.00000000
Si       Si   0.07770000  0.07770000  0.15540000  0.00000000
Si       Si   0.92230000  0.07770000  1.00000000  0.00000000
Si       Si   0.07770000  0.92230000  1.00000000  0.00000000
Si       Si   0.95910000  0.02390000  0.69280000  0.00000000
Si       Si   0.73370000  0.04090000  0.06480000  0.00000000
Si       Si   0.73370000  0.66890000  0.69280000  0.00000000
Si       Si   0.97610000  0.66890000  0.93520000  0.00000000
Si       Si   0.33110000  0.26630000  0.30720000  0.00000000
Si       Si   0.97610000  0.04090000  0.30720000  0.00000000
Si       Si   0.95910000  0.26630000  0.93520000  0.00000000
Si       Si   0.33110000  0.02390000  0.06480000  0.00000000
Si       Si   0.13500000  0.27940000  0.70060000  0.00000000
Si       Si   0.56560000  0.86500000  0.14440000  0.00000000
Si       Si   0.56560000  0.42120000  0.70060000  0.00000000
Si       Si   0.72060000  0.42120000  0.85560000  0.00000000
Si       Si   0.57880000  0.43440000  0.29940000  0.00000000
Si       Si   0.72060000  0.86500000  0.29940000  0.00000000
Si       Si   0.13500000  0.43440000  0.85560000  0.00000000
Si       Si   0.57880000  0.27940000  0.14440000  0.00000000
Si       Si   0.95210000  0.86020000  0.53170000  0.00000000
Si       Si   0.57960000  0.04790000  0.90810000  0.00000000
Si       Si   0.57960000  0.67150000  0.53170000  0.00000000
Si       Si   0.13980000  0.67150000  0.09190000  0.00000000
Si       Si   0.32850000  0.42040000  0.46830000  0.00000000
Si       Si   0.13980000  0.04790000  0.46830000  0.00000000
Si       Si   0.95210000  0.42040000  0.09190000  0.00000000
Si       Si   0.32850000  0.86020000  0.90810000  0.00000000
Si       Si   0.91530000  0.68680000  0.61790000  0.00000000
Si       Si   0.70260000  0.08470000  0.77150000  0.00000000
Si       Si   0.70260000  0.93110000  0.61790000  0.00000000
Si       Si   0.31320000  0.93110000  0.22850000  0.00000000
Si       Si   0.06890000  0.29740000  0.38210000  0.00000000
Si       Si   0.31320000  0.08470000  0.38210000  0.00000000
Si       Si   0.91530000  0.29740000  0.22850000  0.00000000
Si       Si   0.06890000  0.68680000  0.77150000  0.00000000
Si       Si   0.30620000  0.30620000  0.61240000  0.00000000
Si       Si   0.69380000  0.69380000  0.38760000  0.00000000
Si       Si   0.30620000  0.69380000  1.00000000  0.00000000
Si       Si   0.69380000  0.30620000  1.00000000  0.00000000
Si       Si   0.97700000  0.28280000  0.54200000  0.00000000
Si       Si   0.56500000  0.02300000  0.30580000  0.00000000
Si       Si   0.56500000  0.25920000  0.54200000  0.00000000
Si       Si   0.71720000  0.25920000  0.69420000  0.00000000
Si       Si   0.74080000  0.43500000  0.45800000  0.00000000
Si       Si   0.71720000  0.02300000  0.45800000  0.00000000
Si       Si   0.97700000  0.43500000  0.69420000  0.00000000
Si       Si   0.74080000  0.28280000  0.30580000  0.00000000
O        O    0.88480000  0.97210000  0.91270000  0.00000000
O        O    0.05940000  0.97210000  0.08730000  0.00000000
O        O    0.02790000  0.11520000  0.08730000  0.00000000
O        O    0.02790000  0.94060000  0.91270000  0.00000000
O        O    0.97960000  0.99080000  0.77540000  0.00000000
O        O    0.79580000  0.02040000  0.01120000  0.00000000
O        O    0.79580000  0.78460000  0.77540000  0.00000000
O        O    0.00920000  0.78460000  0.98880000  0.00000000
O        O    0.21540000  0.20420000  0.22460000  0.00000000
O        O    0.00920000  0.02040000  0.22460000  0.00000000
O        O    0.97960000  0.20420000  0.98880000  0.00000000
O        O    0.21540000  0.99080000  0.01120000  0.00000000
O        O    0.06940000  0.16240000  0.72180000  0.00000000
O        O    0.65240000  0.93060000  0.09300000  0.00000000
O        O    0.65240000  0.55940000  0.72180000  0.00000000
O        O    0.83760000  0.55940000  0.90700000  0.00000000
O        O    0.44060000  0.34760000  0.27820000  0.00000000
O        O    0.83760000  0.93060000  0.27820000  0.00000000
O        O    0.06940000  0.34760000  0.90700000  0.00000000
O        O    0.44060000  0.16240000  0.09300000  0.00000000
O        O    0.95130000  0.94880000  0.59890000  0.00000000
O        O    0.64760000  0.04870000  0.99750000  0.00000000
O        O    0.64760000  0.65010000  0.59890000  0.00000000
O        O    0.05120000  0.65010000  0.00250000  0.00000000
O        O    0.34990000  0.35240000  0.40110000  0.00000000
O        O    0.05120000  0.04870000  0.40110000  0.00000000
O        O    0.95130000  0.35240000  0.00250000  0.00000000
O        O    0.34990000  0.94880000  0.99750000  0.00000000
O        O    0.97030000  0.75800000  0.55050000  0.00000000
O        O    0.58020000  0.02970000  0.78770000  0.00000000
O        O    0.58020000  0.79250000  0.55050000  0.00000000
O        O    0.24200000  0.79250000  0.21230000  0.00000000
O        O    0.20750000  0.41980000  0.44950000  0.00000000
O        O    0.24200000  0.02970000  0.44950000  0.00000000
O        O    0.97030000  0.41980000  0.21230000  0.00000000
O        O    0.20750000  0.75800000  0.78770000  0.00000000
O        O    0.67500000  0.97530000  0.69970000  0.00000000
O        O    0.27560000  0.97530000  0.30030000  0.00000000
O        O    0.02470000  0.32500000  0.30030000  0.00000000
O        O    0.02470000  0.72440000  0.69970000  0.00000000
O        O    0.44050000  0.55950000  0.50000000  0.00000000
O        O    0.05950000  0.94050000  0.50000000  0.00000000
O        O    0.05950000  0.55950000  0.11900000  0.00000000
O        O    0.44050000  0.94050000  0.88100000  0.00000000
O        O    0.25470000  0.32740000  0.68650000  0.00000000
O        O    0.43180000  0.74530000  0.07270000  0.00000000
O        O    0.43180000  0.35910000  0.68650000  0.00000000
O        O    0.67260000  0.35910000  0.92730000  0.00000000
O        O    0.64090000  0.56820000  0.31350000  0.00000000
O        O    0.67260000  0.74530000  0.31350000  0.00000000
O        O    0.25470000  0.56820000  0.92730000  0.00000000
O        O    0.64090000  0.32740000  0.07270000  0.00000000
O        O    0.23250000  0.17410000  0.55620000  0.00000000
O        O    0.32370000  0.76750000  0.94160000  0.00000000
O        O    0.32370000  0.38210000  0.55620000  0.00000000
O        O    0.82590000  0.38210000  0.05840000  0.00000000
O        O    0.61790000  0.67630000  0.44380000  0.00000000
O        O    0.82590000  0.76750000  0.44380000  0.00000000
O        O    0.23250000  0.67630000  0.05840000  0.00000000
O        O    0.61790000  0.17410000  0.94160000  0.00000000
O        O    0.04870000  0.25920000  0.60850000  0.00000000
O        O    0.55980000  0.95130000  0.21050000  0.00000000
O        O    0.55980000  0.34930000  0.60850000  0.00000000
O        O    0.74080000  0.34930000  0.78950000  0.00000000
O        O    0.65070000  0.44020000  0.39150000  0.00000000
O        O    0.74080000  0.95130000  0.39150000  0.00000000
O        O    0.04870000  0.44020000  0.78950000  0.00000000
O        O    0.65070000  0.25920000  0.21050000  0.00000000
O        O    0.61250000  0.40350000  0.79100000  0.00000000
O        O    0.61250000  0.82150000  0.20900000  0.00000000
O        O    0.17850000  0.38750000  0.79100000  0.00000000
O        O    0.59650000  0.38750000  0.20900000  0.00000000
O        O    0.61290000  0.21690000  0.60400000  0.00000000
O        O    0.61290000  0.00890000  0.39600000  0.00000000
O        O    0.99110000  0.38710000  0.60400000  0.00000000
O        O    0.78310000  0.38710000  0.39600000  0.00000000
O        O    0.84630000  0.99740000  0.66370000  0.00000000
O        O    0.81740000  0.15370000  0.15110000  0.00000000
O        O    0.81740000  0.66630000  0.66370000  0.00000000
O        O    0.00260000  0.66630000  0.84890000  0.00000000
O        O    0.33370000  0.18260000  0.33630000  0.00000000
O        O    0.00260000  0.15370000  0.33630000  0.00000000
O        O    0.84630000  0.18260000  0.84890000  0.00000000
O        O    0.33370000  0.99740000  0.15110000  0.00000000
O        O    0.02700000  0.30530000  0.46270000  0.00000000
O        O    0.43570000  0.97300000  0.27830000  0.00000000
O        O    0.43570000  0.15740000  0.46270000  0.00000000
O        O    0.69470000  0.15740000  0.72170000  0.00000000
O        O    0.84260000  0.56430000  0.53730000  0.00000000
O        O    0.69470000  0.97300000  0.53730000  0.00000000
O        O    0.02700000  0.56430000  0.72170000  0.00000000
O        O    0.84260000  0.30530000  0.27830000  0.00000000
O        O    0.66250000  0.33750000  0.50000000  0.00000000
O        O    0.83750000  0.16250000  0.50000000  0.00000000
O        O    0.83750000  0.33750000  0.67500000  0.00000000
O        O    0.66250000  0.16250000  0.32500000  0.00000000
