data_MFI_SI_mono

_cell_length_a  20.10700000
_cell_length_b  19.87900000
_cell_length_c  13.36900000
_cell_angle_alpha  90.67000000
_cell_angle_beta  90.00000000
_cell_angle_gamma  90.00000000


_symmetry_space_group_name_Hall ' P 1'
_symmetry_space_group_name_H-M  'P 1'
_symmetry_Int_Tables_number     1

loop_
_atom_site_label
_atom_site_type_symbol
_atom_site_fract_x
_atom_site_fract_y
_atom_site_fract_z
_atom_site_charge
Si       Si   0.92056000  0.44454000  0.81990000  2.05000000
Si       Si   0.57944000  0.94454000  0.31990000  2.05000000
Si       Si   0.42056000  0.05546000  0.68010000  2.05000000
Si       Si   0.07944000  0.55546000  0.18010000  2.05000000
Si       Si   0.81368000  0.46910000  0.66358000  2.05000000
Si       Si   0.68632000  0.96910000  0.16358000  2.05000000
Si       Si   0.31368000  0.03090000  0.83642000  2.05000000
Si       Si   0.18632000  0.53090000  0.33642000  2.05000000
Si       Si   0.77960000  0.43751000  0.44654000  2.05000000
Si       Si   0.72040000  0.93751000  0.94654000  2.05000000
Si       Si   0.27960000  0.06249000  0.05346000  2.05000000
Si       Si   0.22040000  0.56249000  0.55346000  2.05000000
Si       Si   0.62395000  0.43767000  0.46326000  2.05000000
Si       Si   0.87605000  0.93767000  0.96326000  2.05000000
Si       Si   0.12395000  0.06233000  0.03674000  2.05000000
Si       Si   0.37605000  0.56233000  0.53674000  2.05000000
Si       Si   0.57678000  0.47196000  0.67597000  2.05000000
Si       Si   0.92322000  0.97196000  0.17597000  2.05000000
Si       Si   0.07678000  0.02804000  0.82403000  2.05000000
Si       Si   0.42322000  0.52804000  0.32403000  2.05000000
Si       Si   0.69556000  0.44415000  0.81331000  2.05000000
Si       Si   0.80444000  0.94415000  0.31331000  2.05000000
Si       Si   0.19556000  0.05585000  0.68669000  2.05000000
Si       Si   0.30444000  0.55585000  0.18669000  2.05000000
Si       Si   0.92542000  0.67148000  0.81930000  2.05000000
Si       Si   0.57458000  0.17148000  0.31930000  2.05000000
Si       Si   0.42542000  0.82852000  0.68070000  2.05000000
Si       Si   0.07458000  0.32852000  0.18070000  2.05000000
Si       Si   0.81225000  0.62653000  0.67388000  2.05000000
Si       Si   0.68775000  0.12653000  0.17388000  2.05000000
Si       Si   0.31225000  0.87347000  0.82612000  2.05000000
Si       Si   0.18775000  0.37347000  0.32612000  2.05000000
Si       Si   0.77325000  0.67590000  0.46403000  2.05000000
Si       Si   0.72675000  0.17590000  0.96403000  2.05000000
Si       Si   0.27325000  0.82410000  0.03597000  2.05000000
Si       Si   0.22675000  0.32410000  0.53597000  2.05000000
Si       Si   0.61895000  0.67634000  0.46564000  2.05000000
Si       Si   0.88105000  0.17634000  0.96564000  2.05000000
Si       Si   0.11895000  0.82366000  0.03436000  2.05000000
Si       Si   0.38105000  0.32366000  0.53436000  2.05000000
Si       Si   0.57156000  0.62939000  0.67516000  2.05000000
Si       Si   0.92844000  0.12939000  0.17516000  2.05000000
Si       Si   0.07156000  0.87061000  0.82484000  2.05000000
Si       Si   0.42844000  0.37061000  0.32484000  2.05000000
Si       Si   0.69079000  0.66528000  0.81408000  2.05000000
Si       Si   0.80921000  0.16528000  0.31408000  2.05000000
Si       Si   0.19079000  0.83472000  0.68592000  2.05000000
Si       Si   0.30921000  0.33472000  0.18592000  2.05000000
Si       Si   0.92837000  0.05703000  0.83456000  2.05000000
Si       Si   0.57163000  0.55703000  0.33456000  2.05000000
Si       Si   0.42837000  0.44297000  0.66544000  2.05000000
Si       Si   0.07163000  0.94297000  0.16544000  2.05000000
Si       Si   0.81237000  0.02695000  0.68814000  2.05000000
Si       Si   0.68763000  0.52695000  0.18814000  2.05000000
Si       Si   0.31237000  0.47305000  0.81186000  2.05000000
Si       Si   0.18763000  0.97305000  0.31186000  2.05000000
Si       Si   0.77704000  0.06111000  0.47060000  2.05000000
Si       Si   0.72296000  0.56111000  0.97060000  2.05000000
Si       Si   0.27704000  0.43889000  0.02940000  2.05000000
Si       Si   0.22296000  0.93889000  0.52940000  2.05000000
Si       Si   0.62155000  0.06437000  0.46620000  2.05000000
Si       Si   0.87845000  0.56437000  0.96620000  2.05000000
Si       Si   0.12155000  0.43563000  0.03380000  2.05000000
Si       Si   0.37845000  0.93563000  0.53380000  2.05000000
Si       Si   0.57096000  0.02685000  0.67844000  2.05000000
Si       Si   0.92904000  0.52685000  0.17844000  2.05000000
Si       Si   0.07096000  0.47315000  0.82156000  2.05000000
Si       Si   0.42904000  0.97315000  0.32156000  2.05000000
Si       Si   0.68737000  0.06222000  0.81743000  2.05000000
Si       Si   0.81263000  0.56222000  0.31743000  2.05000000
Si       Si   0.18737000  0.43778000  0.68257000  2.05000000
Si       Si   0.31263000  0.93778000  0.18257000  2.05000000
Si       Si   0.92389000  0.82796000  0.81417000  2.05000000
Si       Si   0.57611000  0.32796000  0.31417000  2.05000000
Si       Si   0.42389000  0.67204000  0.68583000  2.05000000
Si       Si   0.07611000  0.17204000  0.18583000  2.05000000
Si       Si   0.81278000  0.86870000  0.66836000  2.05000000
Si       Si   0.68722000  0.36870000  0.16836000  2.05000000
Si       Si   0.31278000  0.63130000  0.83164000  2.05000000
Si       Si   0.18722000  0.13130000  0.33164000  2.05000000
Si       Si   0.77312000  0.83108000  0.45392000  2.05000000
Si       Si   0.72688000  0.33108000  0.95392000  2.05000000
Si       Si   0.27312000  0.66892000  0.04608000  2.05000000
Si       Si   0.22688000  0.16892000  0.54608000  2.05000000
Si       Si   0.61867000  0.82993000  0.46132000  2.05000000
Si       Si   0.88133000  0.32993000  0.96132000  2.05000000
Si       Si   0.11867000  0.67007000  0.03868000  2.05000000
Si       Si   0.38133000  0.17007000  0.53868000  2.05000000
Si       Si   0.57268000  0.86918000  0.67757000  2.05000000
Si       Si   0.92732000  0.36918000  0.17757000  2.05000000
Si       Si   0.07268000  0.63082000  0.82243000  2.05000000
Si       Si   0.42732000  0.13082000  0.32243000  2.05000000
Si       Si   0.69446000  0.81930000  0.79789000  2.05000000
Si       Si   0.80554000  0.31930000  0.29789000  2.05000000
Si       Si   0.19446000  0.68070000  0.70211000  2.05000000
Si       Si   0.30554000  0.18070000  0.20211000  2.05000000
O        O    0.87790000  0.44120000  0.71940000 -1.02500000
O        O    0.62210000  0.94120000  0.21940000 -1.02500000
O        O    0.37790000  0.05880000  0.78060000 -1.02500000
O        O    0.12210000  0.55880000  0.28060000 -1.02500000
O        O    0.81060000  0.43380000  0.55640000 -1.02500000
O        O    0.68940000  0.93380000  0.05640000 -1.02500000
O        O    0.31060000  0.06620000  0.94360000 -1.02500000
O        O    0.18940000  0.56620000  0.44360000 -1.02500000
O        O    0.70180000  0.45280000  0.45350000 -1.02500000
O        O    0.79820000  0.95280000  0.95350000 -1.02500000
O        O    0.20180000  0.04720000  0.04650000 -1.02500000
O        O    0.29820000  0.54720000  0.54650000 -1.02500000
O        O    0.60320000  0.43290000  0.57840000 -1.02500000
O        O    0.89680000  0.93290000  0.07840000 -1.02500000
O        O    0.10320000  0.06710000  0.92160000 -1.02500000
O        O    0.39680000  0.56710000  0.42160000 -1.02500000
O        O    0.62300000  0.45570000  0.76930000 -1.02500000
O        O    0.87700000  0.95570000  0.26930000 -1.02500000
O        O    0.12300000  0.04430000  0.73070000 -1.02500000
O        O    0.37700000  0.54430000  0.23070000 -1.02500000
O        O    0.74830000  0.45230000  0.72480000 -1.02500000
O        O    0.75170000  0.95230000  0.22480000 -1.02500000
O        O    0.24830000  0.04770000  0.77520000 -1.02500000
O        O    0.25170000  0.54770000  0.27520000 -1.02500000
O        O    0.87690000  0.65330000  0.72890000 -1.02500000
O        O    0.62310000  0.15330000  0.22890000 -1.02500000
O        O    0.37690000  0.84670000  0.77110000 -1.02500000
O        O    0.12310000  0.34670000  0.27110000 -1.02500000
O        O    0.80500000  0.66690000  0.57250000 -1.02500000
O        O    0.69500000  0.16690000  0.07250000 -1.02500000
O        O    0.30500000  0.83310000  0.92750000 -1.02500000
O        O    0.19500000  0.33310000  0.42750000 -1.02500000
O        O    0.69600000  0.65580000  0.46840000 -1.02500000
O        O    0.80400000  0.15580000  0.96840000 -1.02500000
O        O    0.19600000  0.84420000  0.03160000 -1.02500000
O        O    0.30400000  0.34420000  0.53160000 -1.02500000
O        O    0.58850000  0.66890000  0.57530000 -1.02500000
O        O    0.91150000  0.16890000  0.07530000 -1.02500000
O        O    0.08850000  0.83110000  0.92470000 -1.02500000
O        O    0.41150000  0.33110000  0.42470000 -1.02500000
O        O    0.62080000  0.65110000  0.76300000 -1.02500000
O        O    0.87920000  0.15110000  0.26300000 -1.02500000
O        O    0.12080000  0.84890000  0.73700000 -1.02500000
O        O    0.37920000  0.34890000  0.23700000 -1.02500000
O        O    0.74830000  0.63760000  0.74240000 -1.02500000
O        O    0.75170000  0.13760000  0.24240000 -1.02500000
O        O    0.24830000  0.86240000  0.75760000 -1.02500000
O        O    0.25170000  0.36240000  0.25760000 -1.02500000
O        O    0.81890000  0.54850000  0.64900000 -1.02500000
O        O    0.68110000  0.04850000  0.14900000 -1.02500000
O        O    0.31890000  0.95150000  0.85100000 -1.02500000
O        O    0.18110000  0.45150000  0.35100000 -1.02500000
O        O    0.57810000  0.55090000  0.65290000 -1.02500000
O        O    0.92190000  0.05090000  0.15290000 -1.02500000
O        O    0.07810000  0.94910000  0.84710000 -1.02500000
O        O    0.42190000  0.44910000  0.34710000 -1.02500000
O        O    0.91450000  0.37470000  0.87710000 -1.02500000
O        O    0.58550000  0.87470000  0.37710000 -1.02500000
O        O    0.41450000  0.12530000  0.62290000 -1.02500000
O        O    0.08550000  0.62530000  0.12290000 -1.02500000
O        O    0.89230000  0.50410000  0.88920000 -1.02500000
O        O    0.60770000  0.00410000  0.38920000 -1.02500000
O        O    0.39230000  0.99590000  0.61080000 -1.02500000
O        O    0.10770000  0.49590000  0.11080000 -1.02500000
O        O    0.90220000  0.63400000  0.91860000 -1.02500000
O        O    0.59780000  0.13400000  0.41860000 -1.02500000
O        O    0.40220000  0.86600000  0.58140000 -1.02500000
O        O    0.09780000  0.36600000  0.08140000 -1.02500000
O        O    0.70030000  0.37020000  0.85830000 -1.02500000
O        O    0.79970000  0.87020000  0.35830000 -1.02500000
O        O    0.20030000  0.12980000  0.64170000 -1.02500000
O        O    0.29970000  0.62980000  0.14170000 -1.02500000
O        O    0.70990000  0.49740000  0.90080000 -1.02500000
O        O    0.79010000  0.99740000  0.40080000 -1.02500000
O        O    0.20990000  0.00260000  0.59920000 -1.02500000
O        O    0.29010000  0.50260000  0.09920000 -1.02500000
O        O    0.69480000  0.62750000  0.91880000 -1.02500000
O        O    0.80520000  0.12750000  0.41880000 -1.02500000
O        O    0.19480000  0.87250000  0.58120000 -1.02500000
O        O    0.30520000  0.37250000  0.08120000 -1.02500000
O        O    0.50320000  0.44850000  0.70410000 -1.02500000
O        O    0.99680000  0.94850000  0.20410000 -1.02500000
O        O    0.00320000  0.05150000  0.79590000 -1.02500000
O        O    0.49680000  0.55150000  0.29590000 -1.02500000
O        O    0.49770000  0.64750000  0.70980000 -1.02500000
O        O    0.00230000  0.14750000  0.20980000 -1.02500000
O        O    0.99770000  0.85250000  0.79020000 -1.02500000
O        O    0.50230000  0.35250000  0.29020000 -1.02500000
O        O    0.92390000  0.75010000  0.84130000 -1.02500000
O        O    0.57610000  0.25010000  0.34130000 -1.02500000
O        O    0.42390000  0.74990000  0.65870000 -1.02500000
O        O    0.07610000  0.24990000  0.15870000 -1.02500000
O        O    0.69870000  0.74350000  0.83560000 -1.02500000
O        O    0.80130000  0.24350000  0.33560000 -1.02500000
O        O    0.19870000  0.75650000  0.66440000 -1.02500000
O        O    0.30130000  0.25650000  0.16440000 -1.02500000
O        O    0.78220000  0.75250000  0.43240000 -1.02500000
O        O    0.71780000  0.25250000  0.93240000 -1.02500000
O        O    0.28220000  0.74750000  0.06760000 -1.02500000
O        O    0.21780000  0.24750000  0.56760000 -1.02500000
O        O    0.61010000  0.75260000  0.43030000 -1.02500000
O        O    0.88990000  0.25260000  0.93030000 -1.02500000
O        O    0.11010000  0.74740000  0.06970000 -1.02500000
O        O    0.38990000  0.24740000  0.56970000 -1.02500000
O        O    0.87990000  0.04970000  0.74080000 -1.02500000
O        O    0.62010000  0.54970000  0.24080000 -1.02500000
O        O    0.37990000  0.45030000  0.75920000 -1.02500000
O        O    0.12010000  0.95030000  0.25920000 -1.02500000
O        O    0.81430000  0.05200000  0.57540000 -1.02500000
O        O    0.68570000  0.55200000  0.07540000 -1.02500000
O        O    0.31430000  0.44800000  0.92460000 -1.02500000
O        O    0.18570000  0.94800000  0.42460000 -1.02500000
O        O    0.69910000  0.06820000  0.49060000 -1.02500000
O        O    0.80090000  0.56820000  0.99060000 -1.02500000
O        O    0.19910000  0.43180000  0.00940000 -1.02500000
O        O    0.30090000  0.93180000  0.50940000 -1.02500000
O        O    0.58120000  0.05220000  0.56690000 -1.02500000
O        O    0.91880000  0.55220000  0.06690000 -1.02500000
O        O    0.08120000  0.44780000  0.93310000 -1.02500000
O        O    0.41880000  0.94780000  0.43310000 -1.02500000
O        O    0.62060000  0.06490000  0.75270000 -1.02500000
O        O    0.87940000  0.56490000  0.25270000 -1.02500000
O        O    0.12060000  0.43510000  0.74730000 -1.02500000
O        O    0.37940000  0.93510000  0.24730000 -1.02500000
O        O    0.75050000  0.05990000  0.74510000 -1.02500000
O        O    0.74950000  0.55990000  0.24510000 -1.02500000
O        O    0.25050000  0.44010000  0.75490000 -1.02500000
O        O    0.24950000  0.94010000  0.25490000 -1.02500000
O        O    0.87970000  0.84100000  0.71690000 -1.02500000
O        O    0.62030000  0.34100000  0.21690000 -1.02500000
O        O    0.37970000  0.65900000  0.78310000 -1.02500000
O        O    0.12030000  0.15900000  0.28310000 -1.02500000
O        O    0.81480000  0.85410000  0.55080000 -1.02500000
O        O    0.68520000  0.35410000  0.05080000 -1.02500000
O        O    0.31480000  0.64590000  0.94920000 -1.02500000
O        O    0.18520000  0.14590000  0.44920000 -1.02500000
O        O    0.69610000  0.84870000  0.47300000 -1.02500000
O        O    0.80390000  0.34870000  0.97300000 -1.02500000
O        O    0.19610000  0.65130000  0.02700000 -1.02500000
O        O    0.30390000  0.15130000  0.52700000 -1.02500000
O        O    0.58220000  0.84410000  0.56530000 -1.02500000
O        O    0.91780000  0.34410000  0.06530000 -1.02500000
O        O    0.08220000  0.65590000  0.93470000 -1.02500000
O        O    0.41780000  0.15590000  0.43470000 -1.02500000
O        O    0.62320000  0.83220000  0.75040000 -1.02500000
O        O    0.87680000  0.33220000  0.25040000 -1.02500000
O        O    0.12320000  0.66780000  0.74960000 -1.02500000
O        O    0.37680000  0.16780000  0.24960000 -1.02500000
O        O    0.74970000  0.83060000  0.71440000 -1.02500000
O        O    0.75030000  0.33060000  0.21440000 -1.02500000
O        O    0.24970000  0.66940000  0.78560000 -1.02500000
O        O    0.25030000  0.16940000  0.28560000 -1.02500000
O        O    0.80540000  0.94700000  0.69130000 -1.02500000
O        O    0.69460000  0.44700000  0.19130000 -1.02500000
O        O    0.30540000  0.55300000  0.80870000 -1.02500000
O        O    0.19460000  0.05300000  0.30870000 -1.02500000
O        O    0.58510000  0.94810000  0.68340000 -1.02500000
O        O    0.91490000  0.44810000  0.18340000 -1.02500000
O        O    0.08510000  0.55190000  0.81660000 -1.02500000
O        O    0.41490000  0.05190000  0.31660000 -1.02500000
O        O    0.91860000  0.12860000  0.88850000 -1.02500000
O        O    0.58140000  0.62860000  0.38850000 -1.02500000
O        O    0.41860000  0.37140000  0.61150000 -1.02500000
O        O    0.08140000  0.87140000  0.11150000 -1.02500000
O        O    0.91540000  0.99850000  0.91350000 -1.02500000
O        O    0.58460000  0.49850000  0.41350000 -1.02500000
O        O    0.41540000  0.50150000  0.58650000 -1.02500000
O        O    0.08460000  0.00150000  0.08650000 -1.02500000
O        O    0.89380000  0.86800000  0.90870000 -1.02500000
O        O    0.60620000  0.36800000  0.40870000 -1.02500000
O        O    0.39380000  0.63200000  0.59130000 -1.02500000
O        O    0.10620000  0.13200000  0.09130000 -1.02500000
O        O    0.69000000  0.12890000  0.88470000 -1.02500000
O        O    0.81000000  0.62890000  0.38470000 -1.02500000
O        O    0.19000000  0.37110000  0.61530000 -1.02500000
O        O    0.31000000  0.87110000  0.11530000 -1.02500000
O        O    0.68620000  0.99680000  0.88630000 -1.02500000
O        O    0.81380000  0.49680000  0.38630000 -1.02500000
O        O    0.18620000  0.50320000  0.61370000 -1.02500000
O        O    0.31380000  0.00320000  0.11370000 -1.02500000
O        O    0.70740000  0.86740000  0.89140000 -1.02500000
O        O    0.79260000  0.36740000  0.39140000 -1.02500000
O        O    0.20740000  0.63260000  0.60860000 -1.02500000
O        O    0.29260000  0.13260000  0.10860000 -1.02500000
O        O    0.49610000  0.04240000  0.71040000 -1.02500000
O        O    0.00390000  0.54240000  0.21040000 -1.02500000
O        O    0.99610000  0.45760000  0.78960000 -1.02500000
O        O    0.50390000  0.95760000  0.28960000 -1.02500000
O        O    0.49870000  0.85190000  0.71200000 -1.02500000
O        O    0.00130000  0.35190000  0.21200000 -1.02500000
O        O    0.99870000  0.64810000  0.78800000 -1.02500000
O        O    0.50130000  0.14810000  0.28800000 -1.02500000
