data_MFI_para

_cell_length_a  13.43800000
_cell_length_b  19.82000000
_cell_length_c  20.12100000
_cell_angle_alpha  90.00000000
_cell_angle_beta  90.00000000
_cell_angle_gamma  90.00000000


_symmetry_space_group_name_Hall ' P 1'
_symmetry_space_group_name_H-M  'P 1'
_symmetry_Int_Tables_number     1

loop_
_atom_site_label
_atom_site_type_symbol
_atom_site_fract_x
_atom_site_fract_y
_atom_site_fract_z
_atom_site_charge
Si       Si   0.20341000  0.18386000  0.17512000  0.00000000
Si       Si   0.70341000  0.31614000  0.82488000  0.00000000
Si       Si   0.79659000  0.68386000  0.32488000  0.00000000
Si       Si   0.29659000  0.81614000  0.67512000  0.00000000
Si       Si   0.35283000  0.21829000  0.06765000  0.00000000
Si       Si   0.85283000  0.28171000  0.93235000  0.00000000
Si       Si   0.64717000  0.71829000  0.43235000  0.00000000
Si       Si   0.14717000  0.78171000  0.56765000  0.00000000
Si       Si   0.57416000  0.19710000  0.02983000  0.00000000
Si       Si   0.07416000  0.30290000  0.97017000  0.00000000
Si       Si   0.42584000  0.69710000  0.47017000  0.00000000
Si       Si   0.92584000  0.80290000  0.52983000  0.00000000
Si       Si   0.56605000  0.19532000  0.87322000  0.00000000
Si       Si   0.06605000  0.30468000  0.12678000  0.00000000
Si       Si   0.43395000  0.69532000  0.62678000  0.00000000
Si       Si   0.93395000  0.80468000  0.37322000  0.00000000
Si       Si   0.34722000  0.22043000  0.82586000  0.00000000
Si       Si   0.84722000  0.27957000  0.17414000  0.00000000
Si       Si   0.65278000  0.72043000  0.67414000  0.00000000
Si       Si   0.15278000  0.77957000  0.32586000  0.00000000
Si       Si   0.21938000  0.17948000  0.94627000  0.00000000
Si       Si   0.71938000  0.32052000  0.05373000  0.00000000
Si       Si   0.78062000  0.67948000  0.55373000  0.00000000
Si       Si   0.28062000  0.82052000  0.44627000  0.00000000
Si       Si   0.20773000  0.41908000  0.17775000  0.00000000
Si       Si   0.70773000  0.08092000  0.82225000  0.00000000
Si       Si   0.79227000  0.91908000  0.32225000  0.00000000
Si       Si   0.29227000  0.58092000  0.67775000  0.00000000
Si       Si   0.35050000  0.37781000  0.06761000  0.00000000
Si       Si   0.85050000  0.12219000  0.93239000  0.00000000
Si       Si   0.64950000  0.87781000  0.43239000  0.00000000
Si       Si   0.14950000  0.62219000  0.56761000  0.00000000
Si       Si   0.56043000  0.42378000  0.02322000  0.00000000
Si       Si   0.06043000  0.07622000  0.97678000  0.00000000
Si       Si   0.43957000  0.92378000  0.47678000  0.00000000
Si       Si   0.93957000  0.57622000  0.52322000  0.00000000
Si       Si   0.55883000  0.42479000  0.86852000  0.00000000
Si       Si   0.05883000  0.07521000  0.13148000  0.00000000
Si       Si   0.44117000  0.92479000  0.63148000  0.00000000
Si       Si   0.94117000  0.57521000  0.36852000  0.00000000
Si       Si   0.34798000  0.37883000  0.82438000  0.00000000
Si       Si   0.84798000  0.12117000  0.17562000  0.00000000
Si       Si   0.65202000  0.87883000  0.67562000  0.00000000
Si       Si   0.15202000  0.62117000  0.32438000  0.00000000
Si       Si   0.22004000  0.42288000  0.94567000  0.00000000
Si       Si   0.72004000  0.07712000  0.05433000  0.00000000
Si       Si   0.77996000  0.92288000  0.55433000  0.00000000
Si       Si   0.27996000  0.57712000  0.44567000  0.00000000
Si       Si   0.15703000  0.80048000  0.17531000  0.00000000
Si       Si   0.65703000  0.69952000  0.82469000  0.00000000
Si       Si   0.84297000  0.30048000  0.32469000  0.00000000
Si       Si   0.34297000  0.19952000  0.67531000  0.00000000
Si       Si   0.30983000  0.77896000  0.06445000  0.00000000
Si       Si   0.80983000  0.72104000  0.93555000  0.00000000
Si       Si   0.69017000  0.27896000  0.43555000  0.00000000
Si       Si   0.19017000  0.22104000  0.56445000  0.00000000
Si       Si   0.52162000  0.82259000  0.02904000  0.00000000
Si       Si   0.02162000  0.67741000  0.97096000  0.00000000
Si       Si   0.47838000  0.32259000  0.47096000  0.00000000
Si       Si   0.97838000  0.17741000  0.52904000  0.00000000
Si       Si   0.52285000  0.82317000  0.87149000  0.00000000
Si       Si   0.02285000  0.67683000  0.12851000  0.00000000
Si       Si   0.47715000  0.32317000  0.62851000  0.00000000
Si       Si   0.97715000  0.17683000  0.37149000  0.00000000
Si       Si   0.31229000  0.78108000  0.82431000  0.00000000
Si       Si   0.81229000  0.71892000  0.17569000  0.00000000
Si       Si   0.68771000  0.28108000  0.67569000  0.00000000
Si       Si   0.18771000  0.21892000  0.32431000  0.00000000
Si       Si   0.16204000  0.80013000  0.94248000  0.00000000
Si       Si   0.66204000  0.69987000  0.05752000  0.00000000
Si       Si   0.83796000  0.30013000  0.55752000  0.00000000
Si       Si   0.33796000  0.19987000  0.44248000  0.00000000
Si       Si   0.17590000  0.57593000  0.17801000  0.00000000
Si       Si   0.67590000  0.92407000  0.82199000  0.00000000
Si       Si   0.82410000  0.07593000  0.32199000  0.00000000
Si       Si   0.32410000  0.42407000  0.67801000  0.00000000
Si       Si   0.31764000  0.62227000  0.06712000  0.00000000
Si       Si   0.81764000  0.87773000  0.93288000  0.00000000
Si       Si   0.68236000  0.12227000  0.43288000  0.00000000
Si       Si   0.18236000  0.37773000  0.56712000  0.00000000
Si       Si   0.52484000  0.57803000  0.02474000  0.00000000
Si       Si   0.02484000  0.92197000  0.97526000  0.00000000
Si       Si   0.47516000  0.07803000  0.47526000  0.00000000
Si       Si   0.97516000  0.42197000  0.52474000  0.00000000
Si       Si   0.52460000  0.57850000  0.87035000  0.00000000
Si       Si   0.02460000  0.92150000  0.12965000  0.00000000
Si       Si   0.47540000  0.07850000  0.62965000  0.00000000
Si       Si   0.97540000  0.42150000  0.37035000  0.00000000
Si       Si   0.31557000  0.62207000  0.82384000  0.00000000
Si       Si   0.81557000  0.87793000  0.17616000  0.00000000
Si       Si   0.68443000  0.12207000  0.67616000  0.00000000
Si       Si   0.18443000  0.37793000  0.32384000  0.00000000
Si       Si   0.18341000  0.57681000  0.94578000  0.00000000
Si       Si   0.68341000  0.92319000  0.05422000  0.00000000
Si       Si   0.81659000  0.07681000  0.55422000  0.00000000
Si       Si   0.31659000  0.42319000  0.44578000  0.00000000
O        O    0.30710000  0.18900000  0.13550000  0.00000000
O        O    0.80710000  0.31100000  0.86450000  0.00000000
O        O    0.69290000  0.68900000  0.36450000  0.00000000
O        O    0.19290000  0.81100000  0.63550000  0.00000000
O        O    0.46950000  0.20170000  0.06740000  0.00000000
O        O    0.96950000  0.29830000  0.93260000  0.00000000
O        O    0.53050000  0.70170000  0.43260000  0.00000000
O        O    0.03050000  0.79830000  0.56740000  0.00000000
O        O    0.55390000  0.19570000  0.95190000  0.00000000
O        O    0.05390000  0.30430000  0.04810000  0.00000000
O        O    0.44610000  0.69570000  0.54810000  0.00000000
O        O    0.94610000  0.80430000  0.45190000  0.00000000
O        O    0.45980000  0.19710000  0.83770000  0.00000000
O        O    0.95980000  0.30290000  0.16230000  0.00000000
O        O    0.54020000  0.69710000  0.66230000  0.00000000
O        O    0.04020000  0.80290000  0.33770000  0.00000000
O        O    0.27540000  0.18240000  0.87630000  0.00000000
O        O    0.77540000  0.31760000  0.12370000  0.00000000
O        O    0.72460000  0.68240000  0.62370000  0.00000000
O        O    0.22460000  0.81760000  0.37630000  0.00000000
O        O    0.29850000  0.18460000  0.00550000  0.00000000
O        O    0.79850000  0.31540000  0.99450000  0.00000000
O        O    0.70150000  0.68460000  0.49450000  0.00000000
O        O    0.20150000  0.81540000  0.50550000  0.00000000
O        O    0.30760000  0.40760000  0.13600000  0.00000000
O        O    0.80760000  0.09240000  0.86400000  0.00000000
O        O    0.69240000  0.90760000  0.36400000  0.00000000
O        O    0.19240000  0.59240000  0.63600000  0.00000000
O        O    0.46660000  0.39420000  0.06270000  0.00000000
O        O    0.96660000  0.10580000  0.93730000  0.00000000
O        O    0.53340000  0.89420000  0.43730000  0.00000000
O        O    0.03340000  0.60580000  0.56270000  0.00000000
O        O    0.54750000  0.40590000  0.94560000  0.00000000
O        O    0.04750000  0.09410000  0.05440000  0.00000000
O        O    0.45250000  0.90590000  0.55440000  0.00000000
O        O    0.95250000  0.59410000  0.44560000  0.00000000
O        O    0.46270000  0.39850000  0.82920000  0.00000000
O        O    0.96270000  0.10150000  0.17080000  0.00000000
O        O    0.53730000  0.89850000  0.67080000  0.00000000
O        O    0.03730000  0.60150000  0.32920000  0.00000000
O        O    0.28410000  0.41670000  0.87900000  0.00000000
O        O    0.78410000  0.08330000  0.12100000  0.00000000
O        O    0.71590000  0.91670000  0.62100000  0.00000000
O        O    0.21590000  0.58330000  0.37900000  0.00000000
O        O    0.29250000  0.41260000  0.00680000  0.00000000
O        O    0.79250000  0.08740000  0.99320000  0.00000000
O        O    0.70750000  0.91260000  0.49320000  0.00000000
O        O    0.20750000  0.58740000  0.50680000  0.00000000
O        O    0.33310000  0.29810000  0.06550000  0.00000000
O        O    0.83310000  0.20190000  0.93450000  0.00000000
O        O    0.66690000  0.79810000  0.43450000  0.00000000
O        O    0.16690000  0.70190000  0.56550000  0.00000000
O        O    0.33720000  0.29980000  0.83640000  0.00000000
O        O    0.83720000  0.20020000  0.16360000  0.00000000
O        O    0.66280000  0.79980000  0.66360000  0.00000000
O        O    0.16280000  0.70020000  0.33640000  0.00000000
O        O    0.15540000  0.11100000  0.16310000  0.00000000
O        O    0.65540000  0.38900000  0.83690000  0.00000000
O        O    0.84460000  0.61100000  0.33690000  0.00000000
O        O    0.34460000  0.88900000  0.66310000  0.00000000
O        O    0.12820000  0.24020000  0.14840000  0.00000000
O        O    0.62820000  0.25980000  0.85160000  0.00000000
O        O    0.87180000  0.74020000  0.35160000  0.00000000
O        O    0.37180000  0.75980000  0.64840000  0.00000000
O        O    0.12080000  0.37240000  0.14850000  0.00000000
O        O    0.62080000  0.12760000  0.85150000  0.00000000
O        O    0.87920000  0.87240000  0.35150000  0.00000000
O        O    0.37920000  0.62760000  0.64850000  0.00000000
O        O    0.16120000  0.10960000  0.95000000  0.00000000
O        O    0.66120000  0.39040000  0.05000000  0.00000000
O        O    0.83880000  0.60960000  0.55000000  0.00000000
O        O    0.33880000  0.89040000  0.45000000  0.00000000
O        O    0.14070000  0.23930000  0.95200000  0.00000000
O        O    0.64070000  0.26070000  0.04800000  0.00000000
O        O    0.85930000  0.73930000  0.54800000  0.00000000
O        O    0.35930000  0.76070000  0.45200000  0.00000000
O        O    0.13140000  0.36980000  0.94690000  0.00000000
O        O    0.63140000  0.13020000  0.05310000  0.00000000
O        O    0.86860000  0.86980000  0.55310000  0.00000000
O        O    0.36860000  0.63020000  0.44690000  0.00000000
O        O    0.31370000  0.20090000  0.75220000  0.00000000
O        O    0.81370000  0.29910000  0.24780000  0.00000000
O        O    0.68630000  0.70090000  0.74780000  0.00000000
O        O    0.18630000  0.79910000  0.25220000  0.00000000
O        O    0.30840000  0.40070000  0.75340000  0.00000000
O        O    0.80840000  0.09930000  0.24660000  0.00000000
O        O    0.69160000  0.90070000  0.74660000  0.00000000
O        O    0.19160000  0.59930000  0.25340000  0.00000000
O        O    0.17160000  0.49560000  0.17230000  0.00000000
O        O    0.67160000  0.00440000  0.82770000  0.00000000
O        O    0.82840000  0.99560000  0.32770000  0.00000000
O        O    0.32840000  0.50440000  0.67230000  0.00000000
O        O    0.17380000  0.49710000  0.94750000  0.00000000
O        O    0.67380000  0.00290000  0.05250000  0.00000000
O        O    0.82620000  0.99710000  0.55250000  0.00000000
O        O    0.32620000  0.50290000  0.44750000  0.00000000
O        O    0.56730000  0.50310000  0.03310000  0.00000000
O        O    0.06730000  0.99690000  0.96690000  0.00000000
O        O    0.43270000  0.00310000  0.46690000  0.00000000
O        O    0.93270000  0.49690000  0.53310000  0.00000000
O        O    0.57020000  0.50480000  0.85990000  0.00000000
O        O    0.07020000  0.99520000  0.14010000  0.00000000
O        O    0.42980000  0.00480000  0.64010000  0.00000000
O        O    0.92980000  0.49520000  0.35990000  0.00000000
O        O    0.25810000  0.79730000  0.13310000  0.00000000
O        O    0.75810000  0.70270000  0.86690000  0.00000000
O        O    0.74190000  0.29730000  0.36690000  0.00000000
O        O    0.24190000  0.20270000  0.63310000  0.00000000
O        O    0.41020000  0.82150000  0.05760000  0.00000000
O        O    0.91020000  0.67850000  0.94240000  0.00000000
O        O    0.58980000  0.32150000  0.44240000  0.00000000
O        O    0.08980000  0.17850000  0.55760000  0.00000000
O        O    0.51950000  0.81610000  0.94990000  0.00000000
O        O    0.01950000  0.68390000  0.05010000  0.00000000
O        O    0.48050000  0.31610000  0.55010000  0.00000000
O        O    0.98050000  0.18390000  0.44990000  0.00000000
O        O    0.41330000  0.82010000  0.84190000  0.00000000
O        O    0.91330000  0.67990000  0.15810000  0.00000000
O        O    0.58670000  0.32010000  0.65810000  0.00000000
O        O    0.08670000  0.17990000  0.34190000  0.00000000
O        O    0.22670000  0.79850000  0.87590000  0.00000000
O        O    0.72670000  0.70150000  0.12410000  0.00000000
O        O    0.77330000  0.29850000  0.62410000  0.00000000
O        O    0.27330000  0.20150000  0.37590000  0.00000000
O        O    0.23400000  0.79460000  0.00500000  0.00000000
O        O    0.73400000  0.70540000  0.99500000  0.00000000
O        O    0.76600000  0.29460000  0.49500000  0.00000000
O        O    0.26600000  0.20540000  0.50500000  0.00000000
O        O    0.26850000  0.60420000  0.13710000  0.00000000
O        O    0.76850000  0.89580000  0.86290000  0.00000000
O        O    0.73150000  0.10420000  0.36290000  0.00000000
O        O    0.23150000  0.39580000  0.63710000  0.00000000
O        O    0.42020000  0.58250000  0.06160000  0.00000000
O        O    0.92020000  0.91750000  0.93840000  0.00000000
O        O    0.57980000  0.08250000  0.43840000  0.00000000
O        O    0.07980000  0.41750000  0.56160000  0.00000000
O        O    0.50890000  0.59480000  0.94720000  0.00000000
O        O    0.00890000  0.90520000  0.05280000  0.00000000
O        O    0.49110000  0.09480000  0.55280000  0.00000000
O        O    0.99110000  0.40520000  0.44720000  0.00000000
O        O    0.41950000  0.58370000  0.83390000  0.00000000
O        O    0.91950000  0.91630000  0.16610000  0.00000000
O        O    0.58050000  0.08370000  0.66610000  0.00000000
O        O    0.08050000  0.41630000  0.33390000  0.00000000
O        O    0.23780000  0.60140000  0.87960000  0.00000000
O        O    0.73780000  0.89860000  0.12040000  0.00000000
O        O    0.76220000  0.10140000  0.62040000  0.00000000
O        O    0.26220000  0.39860000  0.37960000  0.00000000
O        O    0.24450000  0.60180000  0.00850000  0.00000000
O        O    0.74450000  0.89820000  0.99150000  0.00000000
O        O    0.75550000  0.10180000  0.49150000  0.00000000
O        O    0.25550000  0.39820000  0.50850000  0.00000000
O        O    0.33990000  0.70110000  0.06290000  0.00000000
O        O    0.83990000  0.79890000  0.93710000  0.00000000
O        O    0.66010000  0.20110000  0.43710000  0.00000000
O        O    0.16010000  0.29890000  0.56290000  0.00000000
O        O    0.33460000  0.70140000  0.82540000  0.00000000
O        O    0.83460000  0.79860000  0.17460000  0.00000000
O        O    0.66540000  0.20140000  0.67460000  0.00000000
O        O    0.16540000  0.29860000  0.32540000  0.00000000
O        O    0.10120000  0.86850000  0.15970000  0.00000000
O        O    0.60120000  0.63150000  0.84030000  0.00000000
O        O    0.89880000  0.36850000  0.34030000  0.00000000
O        O    0.39880000  0.13150000  0.65970000  0.00000000
O        O    0.08780000  0.73720000  0.15780000  0.00000000
O        O    0.58780000  0.76280000  0.84220000  0.00000000
O        O    0.91220000  0.23720000  0.34220000  0.00000000
O        O    0.41220000  0.26280000  0.65780000  0.00000000
O        O    0.07320000  0.60650000  0.14990000  0.00000000
O        O    0.57320000  0.89350000  0.85010000  0.00000000
O        O    0.92680000  0.10650000  0.35010000  0.00000000
O        O    0.42680000  0.39350000  0.64990000  0.00000000
O        O    0.10210000  0.86970000  0.94510000  0.00000000
O        O    0.60210000  0.63030000  0.05490000  0.00000000
O        O    0.89790000  0.36970000  0.55490000  0.00000000
O        O    0.39790000  0.13030000  0.44510000  0.00000000
O        O    0.08450000  0.73870000  0.94120000  0.00000000
O        O    0.58450000  0.76130000  0.05880000  0.00000000
O        O    0.91550000  0.23870000  0.55880000  0.00000000
O        O    0.41550000  0.26130000  0.44120000  0.00000000
O        O    0.07380000  0.60860000  0.94840000  0.00000000
O        O    0.57380000  0.89140000  0.05160000  0.00000000
O        O    0.92620000  0.10860000  0.55160000  0.00000000
O        O    0.42620000  0.39140000  0.44840000  0.00000000
O        O    0.27530000  0.80480000  0.75210000  0.00000000
O        O    0.77530000  0.69520000  0.24790000  0.00000000
O        O    0.72470000  0.30480000  0.74790000  0.00000000
O        O    0.22470000  0.19520000  0.25210000  0.00000000
O        O    0.27060000  0.60100000  0.75360000  0.00000000
O        O    0.77060000  0.89900000  0.24640000  0.00000000
O        O    0.72940000  0.10100000  0.74640000  0.00000000
O        O    0.22940000  0.39900000  0.25360000  0.00000000
