data_MFI_SI_mono

_cell_length_a  19.87900000
_cell_length_b  20.10700000
_cell_length_c  23.82623449
_cell_angle_alpha  90.00000000
_cell_angle_beta  145.87046115
_cell_angle_gamma  90.00000000


_symmetry_space_group_name_Hall ' P 1'
_symmetry_space_group_name_H-M  'P 1'
_symmetry_Int_Tables_number     1

loop_
_atom_site_label
_atom_site_type_symbol
_atom_site_fract_x
_atom_site_fract_y
_atom_site_fract_z
_atom_site_charge
Si       Si   0.37536000  0.92056000  0.81990000  0.00000000
Si       Si   0.37536000  0.57944000  0.31990000  0.00000000
Si       Si   0.62464000  0.42056000  0.68010000  0.00000000
Si       Si   0.62464000  0.07944000  0.18010000  0.00000000
Si       Si   0.19448000  0.81368000  0.66358000  0.00000000
Si       Si   0.19448000  0.68632000  0.16358000  0.00000000
Si       Si   0.80552000  0.31368000  0.83642000  0.00000000
Si       Si   0.80552000  0.18632000  0.33642000  0.00000000
Si       Si   0.00903000  0.77960000  0.44654000  0.00000000
Si       Si   0.00903000  0.72040000  0.94654000  0.00000000
Si       Si   0.99097000  0.27960000  0.05346000  0.00000000
Si       Si   0.99097000  0.22040000  0.55346000  0.00000000
Si       Si   0.02559000  0.62395000  0.46326000  0.00000000
Si       Si   0.02559000  0.87605000  0.96326000  0.00000000
Si       Si   0.97441000  0.12395000  0.03674000  0.00000000
Si       Si   0.97441000  0.37605000  0.53674000  0.00000000
Si       Si   0.20401000  0.57678000  0.67597000  0.00000000
Si       Si   0.20401000  0.92322000  0.17597000  0.00000000
Si       Si   0.79599000  0.07678000  0.82403000  0.00000000
Si       Si   0.79599000  0.42322000  0.32403000  0.00000000
Si       Si   0.36916000  0.69556000  0.81331000  0.00000000
Si       Si   0.36916000  0.80444000  0.31331000  0.00000000
Si       Si   0.63084000  0.19556000  0.68669000  0.00000000
Si       Si   0.63084000  0.30444000  0.18669000  0.00000000
Si       Si   0.14782000  0.92542000  0.81930000  0.00000000
Si       Si   0.14782000  0.57458000  0.31930000  0.00000000
Si       Si   0.85218000  0.42542000  0.68070000  0.00000000
Si       Si   0.85218000  0.07458000  0.18070000  0.00000000
Si       Si   0.04735000  0.81225000  0.67388000  0.00000000
Si       Si   0.04735000  0.68775000  0.17388000  0.00000000
Si       Si   0.95265000  0.31225000  0.82612000  0.00000000
Si       Si   0.95265000  0.18775000  0.32612000  0.00000000
Si       Si   0.78813000  0.77325000  0.46403000  0.00000000
Si       Si   0.78813000  0.72675000  0.96403000  0.00000000
Si       Si   0.21187000  0.27325000  0.03597000  0.00000000
Si       Si   0.21187000  0.22675000  0.53597000  0.00000000
Si       Si   0.78930000  0.61895000  0.46564000  0.00000000
Si       Si   0.78930000  0.88105000  0.96564000  0.00000000
Si       Si   0.21070000  0.11895000  0.03436000  0.00000000
Si       Si   0.21070000  0.38105000  0.53436000  0.00000000
Si       Si   0.04577000  0.57156000  0.67516000  0.00000000
Si       Si   0.04577000  0.92844000  0.17516000  0.00000000
Si       Si   0.95423000  0.07156000  0.82484000  0.00000000
Si       Si   0.95423000  0.42844000  0.32484000  0.00000000
Si       Si   0.14880000  0.69079000  0.81408000  0.00000000
Si       Si   0.14880000  0.80921000  0.31408000  0.00000000
Si       Si   0.85120000  0.19079000  0.68592000  0.00000000
Si       Si   0.85120000  0.30921000  0.18592000  0.00000000
Si       Si   0.77753000  0.92837000  0.83456000  0.00000000
Si       Si   0.77753000  0.57163000  0.33456000  0.00000000
Si       Si   0.22247000  0.42837000  0.66544000  0.00000000
Si       Si   0.22247000  0.07163000  0.16544000  0.00000000
Si       Si   0.66119000  0.81237000  0.68814000  0.00000000
Si       Si   0.66119000  0.68763000  0.18814000  0.00000000
Si       Si   0.33881000  0.31237000  0.81186000  0.00000000
Si       Si   0.33881000  0.18763000  0.31186000  0.00000000
Si       Si   0.40949000  0.77704000  0.47060000  0.00000000
Si       Si   0.40949000  0.72296000  0.97060000  0.00000000
Si       Si   0.59051000  0.27704000  0.02940000  0.00000000
Si       Si   0.59051000  0.22296000  0.52940000  0.00000000
Si       Si   0.40183000  0.62155000  0.46620000  0.00000000
Si       Si   0.40183000  0.87845000  0.96620000  0.00000000
Si       Si   0.59817000  0.12155000  0.03380000  0.00000000
Si       Si   0.59817000  0.37845000  0.53380000  0.00000000
Si       Si   0.65159000  0.57096000  0.67844000  0.00000000
Si       Si   0.65159000  0.92904000  0.17844000  0.00000000
Si       Si   0.34841000  0.07096000  0.82156000  0.00000000
Si       Si   0.34841000  0.42904000  0.32156000  0.00000000
Si       Si   0.75521000  0.68737000  0.81743000  0.00000000
Si       Si   0.75521000  0.81263000  0.31743000  0.00000000
Si       Si   0.24479000  0.18737000  0.68257000  0.00000000
Si       Si   0.24479000  0.31263000  0.18257000  0.00000000
Si       Si   0.98621000  0.92389000  0.81417000  0.00000000
Si       Si   0.98621000  0.57611000  0.31417000  0.00000000
Si       Si   0.01379000  0.42389000  0.68583000  0.00000000
Si       Si   0.01379000  0.07611000  0.18583000  0.00000000
Si       Si   0.79966000  0.81278000  0.66836000  0.00000000
Si       Si   0.79966000  0.68722000  0.16836000  0.00000000
Si       Si   0.20034000  0.31278000  0.83164000  0.00000000
Si       Si   0.20034000  0.18722000  0.33164000  0.00000000
Si       Si   0.62284000  0.77312000  0.45392000  0.00000000
Si       Si   0.62284000  0.72688000  0.95392000  0.00000000
Si       Si   0.37716000  0.27312000  0.04608000  0.00000000
Si       Si   0.37716000  0.22688000  0.54608000  0.00000000
Si       Si   0.63139000  0.61867000  0.46132000  0.00000000
Si       Si   0.63139000  0.88133000  0.96132000  0.00000000
Si       Si   0.36861000  0.11867000  0.03868000  0.00000000
Si       Si   0.36861000  0.38133000  0.53868000  0.00000000
Si       Si   0.80839000  0.57268000  0.67757000  0.00000000
Si       Si   0.80839000  0.92732000  0.17757000  0.00000000
Si       Si   0.19161000  0.07268000  0.82243000  0.00000000
Si       Si   0.19161000  0.42732000  0.32243000  0.00000000
Si       Si   0.97859000  0.69446000  0.79789000  0.00000000
Si       Si   0.97859000  0.80554000  0.29789000  0.00000000
Si       Si   0.02141000  0.19446000  0.70211000  0.00000000
Si       Si   0.02141000  0.30554000  0.20211000  0.00000000
O        O    0.27820000  0.87790000  0.71940000  0.00000000
O        O    0.27820000  0.62210000  0.21940000  0.00000000
O        O    0.72180000  0.37790000  0.78060000  0.00000000
O        O    0.72180000  0.12210000  0.28060000  0.00000000
O        O    0.12260000  0.81060000  0.55640000  0.00000000
O        O    0.12260000  0.68940000  0.05640000  0.00000000
O        O    0.87740000  0.31060000  0.94360000  0.00000000
O        O    0.87740000  0.18940000  0.44360000  0.00000000
O        O    0.00070000  0.70180000  0.45350000  0.00000000
O        O    0.00070000  0.79820000  0.95350000  0.00000000
O        O    0.99930000  0.20180000  0.04650000  0.00000000
O        O    0.99930000  0.29820000  0.54650000  0.00000000
O        O    0.14550000  0.60320000  0.57840000  0.00000000
O        O    0.14550000  0.89680000  0.07840000  0.00000000
O        O    0.85450000  0.10320000  0.92160000  0.00000000
O        O    0.85450000  0.39680000  0.42160000  0.00000000
O        O    0.31360000  0.62300000  0.76930000  0.00000000
O        O    0.31360000  0.87700000  0.26930000  0.00000000
O        O    0.68640000  0.12300000  0.73070000  0.00000000
O        O    0.68640000  0.37700000  0.23070000  0.00000000
O        O    0.27250000  0.74830000  0.72480000  0.00000000
O        O    0.27250000  0.75170000  0.22480000  0.00000000
O        O    0.72750000  0.24830000  0.77520000  0.00000000
O        O    0.72750000  0.25170000  0.27520000  0.00000000
O        O    0.07560000  0.87690000  0.72890000  0.00000000
O        O    0.07560000  0.62310000  0.22890000  0.00000000
O        O    0.92440000  0.37690000  0.77110000  0.00000000
O        O    0.92440000  0.12310000  0.27110000  0.00000000
O        O    0.90560000  0.80500000  0.57250000  0.00000000
O        O    0.90560000  0.69500000  0.07250000  0.00000000
O        O    0.09440000  0.30500000  0.92750000  0.00000000
O        O    0.09440000  0.19500000  0.42750000  0.00000000
O        O    0.81260000  0.69600000  0.46840000  0.00000000
O        O    0.81260000  0.80400000  0.96840000  0.00000000
O        O    0.18740000  0.19600000  0.03160000  0.00000000
O        O    0.18740000  0.30400000  0.53160000  0.00000000
O        O    0.90640000  0.58850000  0.57530000  0.00000000
O        O    0.90640000  0.91150000  0.07530000  0.00000000
O        O    0.09360000  0.08850000  0.92470000  0.00000000
O        O    0.09360000  0.41150000  0.42470000  0.00000000
O        O    0.11190000  0.62080000  0.76300000  0.00000000
O        O    0.11190000  0.87920000  0.26300000  0.00000000
O        O    0.88810000  0.12080000  0.73700000  0.00000000
O        O    0.88810000  0.37920000  0.23700000  0.00000000
O        O    0.10480000  0.74830000  0.74240000  0.00000000
O        O    0.10480000  0.75170000  0.24240000  0.00000000
O        O    0.89520000  0.24830000  0.75760000  0.00000000
O        O    0.89520000  0.25170000  0.25760000  0.00000000
O        O    0.10050000  0.81890000  0.64900000  0.00000000
O        O    0.10050000  0.68110000  0.14900000  0.00000000
O        O    0.89950000  0.31890000  0.85100000  0.00000000
O        O    0.89950000  0.18110000  0.35100000  0.00000000
O        O    0.10200000  0.57810000  0.65290000  0.00000000
O        O    0.10200000  0.92190000  0.15290000  0.00000000
O        O    0.89800000  0.07810000  0.84710000  0.00000000
O        O    0.89800000  0.42190000  0.34710000  0.00000000
O        O    0.50240000  0.91450000  0.87710000  0.00000000
O        O    0.50240000  0.58550000  0.37710000  0.00000000
O        O    0.49760000  0.41450000  0.62290000  0.00000000
O        O    0.49760000  0.08550000  0.12290000  0.00000000
O        O    0.38510000  0.89230000  0.88920000  0.00000000
O        O    0.38510000  0.60770000  0.38920000  0.00000000
O        O    0.61490000  0.39230000  0.61080000  0.00000000
O        O    0.61490000  0.10770000  0.11080000  0.00000000
O        O    0.28460000  0.90220000  0.91860000  0.00000000
O        O    0.28460000  0.59780000  0.41860000  0.00000000
O        O    0.71540000  0.40220000  0.58140000  0.00000000
O        O    0.71540000  0.09780000  0.08140000  0.00000000
O        O    0.48810000  0.70030000  0.85830000  0.00000000
O        O    0.48810000  0.79970000  0.35830000  0.00000000
O        O    0.51190000  0.20030000  0.64170000  0.00000000
O        O    0.51190000  0.29970000  0.14170000  0.00000000
O        O    0.40340000  0.70990000  0.90080000  0.00000000
O        O    0.40340000  0.79010000  0.40080000  0.00000000
O        O    0.59660000  0.20990000  0.59920000  0.00000000
O        O    0.59660000  0.29010000  0.09920000  0.00000000
O        O    0.29130000  0.69480000  0.91880000  0.00000000
O        O    0.29130000  0.80520000  0.41880000  0.00000000
O        O    0.70870000  0.19480000  0.58120000  0.00000000
O        O    0.70870000  0.30520000  0.08120000  0.00000000
O        O    0.25560000  0.50320000  0.70410000  0.00000000
O        O    0.25560000  0.99680000  0.20410000  0.00000000
O        O    0.74440000  0.00320000  0.79590000  0.00000000
O        O    0.74440000  0.49680000  0.29590000  0.00000000
O        O    0.06230000  0.49770000  0.70980000  0.00000000
O        O    0.06230000  0.00230000  0.20980000  0.00000000
O        O    0.93770000  0.99770000  0.79020000  0.00000000
O        O    0.93770000  0.50230000  0.29020000  0.00000000
O        O    0.09120000  0.92390000  0.84130000  0.00000000
O        O    0.09120000  0.57610000  0.34130000  0.00000000
O        O    0.90880000  0.42390000  0.65870000  0.00000000
O        O    0.90880000  0.07610000  0.15870000  0.00000000
O        O    0.09210000  0.69870000  0.83560000  0.00000000
O        O    0.09210000  0.80130000  0.33560000  0.00000000
O        O    0.90790000  0.19870000  0.66440000  0.00000000
O        O    0.90790000  0.30130000  0.16440000  0.00000000
O        O    0.67990000  0.78220000  0.43240000  0.00000000
O        O    0.67990000  0.71780000  0.93240000  0.00000000
O        O    0.32010000  0.28220000  0.06760000  0.00000000
O        O    0.32010000  0.21780000  0.56760000  0.00000000
O        O    0.67770000  0.61010000  0.43030000  0.00000000
O        O    0.67770000  0.88990000  0.93030000  0.00000000
O        O    0.32230000  0.11010000  0.06970000  0.00000000
O        O    0.32230000  0.38990000  0.56970000  0.00000000
O        O    0.69110000  0.87990000  0.74080000  0.00000000
O        O    0.69110000  0.62010000  0.24080000  0.00000000
O        O    0.30890000  0.37990000  0.75920000  0.00000000
O        O    0.30890000  0.12010000  0.25920000  0.00000000
O        O    0.52340000  0.81430000  0.57540000  0.00000000
O        O    0.52340000  0.68570000  0.07540000  0.00000000
O        O    0.47660000  0.31430000  0.92460000  0.00000000
O        O    0.47660000  0.18570000  0.42460000  0.00000000
O        O    0.42240000  0.69910000  0.49060000  0.00000000
O        O    0.42240000  0.80090000  0.99060000  0.00000000
O        O    0.57760000  0.19910000  0.00940000  0.00000000
O        O    0.57760000  0.30090000  0.50940000  0.00000000
O        O    0.51470000  0.58120000  0.56690000  0.00000000
O        O    0.51470000  0.91880000  0.06690000  0.00000000
O        O    0.48530000  0.08120000  0.93310000  0.00000000
O        O    0.48530000  0.41880000  0.43310000  0.00000000
O        O    0.68780000  0.62060000  0.75270000  0.00000000
O        O    0.68780000  0.87940000  0.25270000  0.00000000
O        O    0.31220000  0.12060000  0.74730000  0.00000000
O        O    0.31220000  0.37940000  0.24730000  0.00000000
O        O    0.68520000  0.75050000  0.74510000  0.00000000
O        O    0.68520000  0.74950000  0.24510000  0.00000000
O        O    0.31480000  0.25050000  0.75490000  0.00000000
O        O    0.31480000  0.24950000  0.25490000  0.00000000
O        O    0.87590000  0.87970000  0.71690000  0.00000000
O        O    0.87590000  0.62030000  0.21690000  0.00000000
O        O    0.12410000  0.37970000  0.78310000  0.00000000
O        O    0.12410000  0.12030000  0.28310000  0.00000000
O        O    0.69670000  0.81480000  0.55080000  0.00000000
O        O    0.69670000  0.68520000  0.05080000  0.00000000
O        O    0.30330000  0.31480000  0.94920000  0.00000000
O        O    0.30330000  0.18520000  0.44920000  0.00000000
O        O    0.62430000  0.69610000  0.47300000  0.00000000
O        O    0.62430000  0.80390000  0.97300000  0.00000000
O        O    0.37570000  0.19610000  0.02700000  0.00000000
O        O    0.37570000  0.30390000  0.52700000  0.00000000
O        O    0.72120000  0.58220000  0.56530000  0.00000000
O        O    0.72120000  0.91780000  0.06530000  0.00000000
O        O    0.27880000  0.08220000  0.93470000  0.00000000
O        O    0.27880000  0.41780000  0.43470000  0.00000000
O        O    0.91820000  0.62320000  0.75040000  0.00000000
O        O    0.91820000  0.87680000  0.25040000  0.00000000
O        O    0.08180000  0.12320000  0.74960000  0.00000000
O        O    0.08180000  0.37680000  0.24960000  0.00000000
O        O    0.88380000  0.74970000  0.71440000  0.00000000
O        O    0.88380000  0.75030000  0.21440000  0.00000000
O        O    0.11620000  0.24970000  0.78560000  0.00000000
O        O    0.11620000  0.25030000  0.28560000  0.00000000
O        O    0.74430000  0.80540000  0.69130000  0.00000000
O        O    0.74430000  0.69460000  0.19130000  0.00000000
O        O    0.25570000  0.30540000  0.80870000  0.00000000
O        O    0.25570000  0.19460000  0.30870000  0.00000000
O        O    0.73530000  0.58510000  0.68340000  0.00000000
O        O    0.73530000  0.91490000  0.18340000  0.00000000
O        O    0.26470000  0.08510000  0.81660000  0.00000000
O        O    0.26470000  0.41490000  0.31660000  0.00000000
O        O    0.75990000  0.91860000  0.88850000  0.00000000
O        O    0.75990000  0.58140000  0.38850000  0.00000000
O        O    0.24010000  0.41860000  0.61150000  0.00000000
O        O    0.24010000  0.08140000  0.11150000  0.00000000
O        O    0.91500000  0.91540000  0.91350000  0.00000000
O        O    0.91500000  0.58460000  0.41350000  0.00000000
O        O    0.08500000  0.41540000  0.58650000  0.00000000
O        O    0.08500000  0.08460000  0.08650000  0.00000000
O        O    0.04070000  0.89380000  0.90870000  0.00000000
O        O    0.04070000  0.60620000  0.40870000  0.00000000
O        O    0.95930000  0.39380000  0.59130000  0.00000000
O        O    0.95930000  0.10620000  0.09130000  0.00000000
O        O    0.75580000  0.69000000  0.88470000  0.00000000
O        O    0.75580000  0.81000000  0.38470000  0.00000000
O        O    0.24420000  0.19000000  0.61530000  0.00000000
O        O    0.24420000  0.31000000  0.11530000  0.00000000
O        O    0.88950000  0.68620000  0.88630000  0.00000000
O        O    0.88950000  0.81380000  0.38630000  0.00000000
O        O    0.11050000  0.18620000  0.61370000  0.00000000
O        O    0.11050000  0.31380000  0.11370000  0.00000000
O        O    0.02400000  0.70740000  0.89140000  0.00000000
O        O    0.02400000  0.79260000  0.39140000  0.00000000
O        O    0.97600000  0.20740000  0.60860000  0.00000000
O        O    0.97600000  0.29260000  0.10860000  0.00000000
O        O    0.66800000  0.49610000  0.71040000  0.00000000
O        O    0.66800000  0.00390000  0.21040000  0.00000000
O        O    0.33200000  0.99610000  0.78960000  0.00000000
O        O    0.33200000  0.50390000  0.28960000  0.00000000
O        O    0.86010000  0.49870000  0.71200000  0.00000000
O        O    0.86010000  0.00130000  0.21200000  0.00000000
O        O    0.13990000  0.99870000  0.78800000  0.00000000
O        O    0.13990000  0.50130000  0.28800000  0.00000000
