data_MFS

_cell_length_a  12.33427912
_cell_length_b  12.33427912
_cell_length_c  12.33427912
_cell_angle_alpha  144.83912740
_cell_angle_beta  109.87635092
_cell_angle_gamma  80.93645592


_symmetry_space_group_name_Hall ' P 1'
_symmetry_space_group_name_H-M  'P 1'
_symmetry_Int_Tables_number     1

loop_
_atom_site_label
_atom_site_type_symbol
_atom_site_fract_x
_atom_site_fract_y
_atom_site_fract_z
_atom_site_charge
Si       Si   0.00000000  0.00000000  0.00000000  0.00000000
Si       Si   0.25570000  0.05140000  0.20430000  0.00000000
Si       Si   0.84710000  0.05140000  0.79570000  0.00000000
Si       Si   0.90120000  0.20140000  0.69980000  0.00000000
Si       Si   0.50160000  0.20140000  0.30020000  0.00000000
Si       Si   0.88240000  0.58830000  0.70590000  0.00000000
Si       Si   0.88240000  0.17650000  0.29410000  0.00000000
Si       Si   0.01150000  0.60950000  0.99060000  0.00000000
Si       Si   0.61890000  0.60950000  0.59800000  0.00000000
Si       Si   0.01150000  0.02090000  0.40200000  0.00000000
Si       Si   0.61890000  0.02090000  0.00940000  0.00000000
Si       Si   0.65900000  0.66340000  0.40780000  0.00000000
Si       Si   0.25560000  0.66340000  0.00440000  0.00000000
Si       Si   0.65900000  0.25120000  0.99560000  0.00000000
Si       Si   0.25560000  0.25120000  0.59220000  0.00000000
Si       Si   0.63320000  0.13320000  0.50000000  0.00000000
Si       Si   0.51520000  0.72070000  0.20550000  0.00000000
Si       Si   0.51520000  0.30970000  0.79450000  0.00000000
O        O    0.14120000  0.04970000  0.09150000  0.00000000
O        O    0.95820000  0.04970000  0.90850000  0.00000000
O        O    0.95270000  0.77730000  0.82460000  0.00000000
O        O    0.95270000  0.12810000  0.17540000  0.00000000
O        O    0.36910000  0.13220000  0.23690000  0.00000000
O        O    0.89530000  0.13220000  0.76310000  0.00000000
O        O    0.25290000  0.83690000  0.06500000  0.00000000
O        O    0.77190000  0.83690000  0.58400000  0.00000000
O        O    0.25290000  0.18790000  0.41600000  0.00000000
O        O    0.77190000  0.18790000  0.93500000  0.00000000
O        O    0.97290000  0.42210000  0.89980000  0.00000000
O        O    0.52230000  0.42210000  0.44920000  0.00000000
O        O    0.97290000  0.07310000  0.55080000  0.00000000
O        O    0.52230000  0.07310000  0.10020000  0.00000000
O        O    0.77390000  0.18270000  0.59120000  0.00000000
O        O    0.59150000  0.18270000  0.40880000  0.00000000
O        O    0.90540000  0.40540000  0.50000000  0.00000000
O        O    0.92840000  0.58370000  0.83850000  0.00000000
O        O    0.74520000  0.58370000  0.65530000  0.00000000
O        O    0.92840000  0.08990000  0.34470000  0.00000000
O        O    0.74520000  0.08990000  0.16150000  0.00000000
O        O    0.99520000  0.79210000  0.20310000  0.00000000
O        O    0.58900000  0.79210000  0.79690000  0.00000000
O        O    0.14670000  0.63380000  0.02470000  0.00000000
O        O    0.60910000  0.63380000  0.48710000  0.00000000
O        O    0.14670000  0.12200000  0.51290000  0.00000000
O        O    0.60910000  0.12200000  0.97530000  0.00000000
O        O    0.69580000  0.47240000  0.22340000  0.00000000
O        O    0.24900000  0.47240000  0.77660000  0.00000000
O        O    0.53890000  0.53890000  1.00000000  0.00000000
O        O    0.58510000  0.91030000  0.32520000  0.00000000
O        O    0.58510000  0.25990000  0.67480000  0.00000000
O        O    0.55980000  0.71110000  0.33470000  0.00000000
O        O    0.37640000  0.71110000  0.15130000  0.00000000
O        O    0.55980000  0.22510000  0.84870000  0.00000000
O        O    0.37640000  0.22510000  0.66530000  0.00000000
