data_MFS

_cell_length_a  7.45100000
_cell_length_b  14.17110000
_cell_length_c  18.76700000
_cell_angle_alpha  90.00000000
_cell_angle_beta  90.00000000
_cell_angle_gamma  90.00000000


_symmetry_space_group_name_Hall ' P 1'
_symmetry_space_group_name_H-M  'P 1'
_symmetry_Int_Tables_number     1

loop_
_atom_site_label
_atom_site_type_symbol
_atom_site_fract_x
_atom_site_fract_y
_atom_site_fract_z
_atom_site_charge
Si       Si   0.00000000  0.00000000  0.00000000  0.00000000
Si       Si   0.50000000  0.50000000  0.50000000  0.00000000
Si       Si   0.50000000  0.70430000  0.44860000  0.00000000
Si       Si   0.00000000  0.79570000  0.94860000  0.00000000
Si       Si   0.00000000  0.20430000  0.94860000  0.00000000
Si       Si   0.50000000  0.29570000  0.44860000  0.00000000
Si       Si   0.50000000  0.19980000  0.29860000  0.00000000
Si       Si   0.00000000  0.30020000  0.79860000  0.00000000
Si       Si   0.00000000  0.69980000  0.79860000  0.00000000
Si       Si   0.50000000  0.80020000  0.29860000  0.00000000
Si       Si   0.29410000  0.00000000  0.11760000  0.00000000
Si       Si   0.20590000  0.50000000  0.61760000  0.00000000
Si       Si   0.70590000  0.00000000  0.11760000  0.00000000
Si       Si   0.79410000  0.50000000  0.61760000  0.00000000
Si       Si   0.70570000  0.69630000  0.68480000  0.00000000
Si       Si   0.20570000  0.80370000  0.18480000  0.00000000
Si       Si   0.20570000  0.19630000  0.18480000  0.00000000
Si       Si   0.29430000  0.69630000  0.68480000  0.00000000
Si       Si   0.29430000  0.30370000  0.68480000  0.00000000
Si       Si   0.79430000  0.80370000  0.18480000  0.00000000
Si       Si   0.79430000  0.19630000  0.18480000  0.00000000
Si       Si   0.70570000  0.30370000  0.68480000  0.00000000
Si       Si   0.79390000  0.20170000  0.54270000  0.00000000
Si       Si   0.29390000  0.29830000  0.04270000  0.00000000
Si       Si   0.29390000  0.70170000  0.04270000  0.00000000
Si       Si   0.20610000  0.20170000  0.54270000  0.00000000
Si       Si   0.20610000  0.79830000  0.54270000  0.00000000
Si       Si   0.70610000  0.29830000  0.04270000  0.00000000
Si       Si   0.70610000  0.70170000  0.04270000  0.00000000
Si       Si   0.79390000  0.79830000  0.54270000  0.00000000
Si       Si   0.00000000  0.50000000  0.86680000  0.00000000
Si       Si   0.50000000  0.00000000  0.36680000  0.00000000
Si       Si   0.29450000  0.50000000  0.98480000  0.00000000
Si       Si   0.20550000  0.00000000  0.48480000  0.00000000
Si       Si   0.70550000  0.50000000  0.98480000  0.00000000
Si       Si   0.79450000  0.00000000  0.48480000  0.00000000
O        O    0.50000000  0.59150000  0.45030000  0.00000000
O        O    0.00000000  0.90850000  0.95030000  0.00000000
O        O    0.00000000  0.09150000  0.95030000  0.00000000
O        O    0.50000000  0.40850000  0.45030000  0.00000000
O        O    0.17540000  0.00000000  0.04730000  0.00000000
O        O    0.32460000  0.50000000  0.54730000  0.00000000
O        O    0.82460000  0.00000000  0.04730000  0.00000000
O        O    0.67540000  0.50000000  0.54730000  0.00000000
O        O    0.50000000  0.73690000  0.36780000  0.00000000
O        O    0.00000000  0.76310000  0.86780000  0.00000000
O        O    0.00000000  0.23690000  0.86780000  0.00000000
O        O    0.50000000  0.26310000  0.36780000  0.00000000
O        O    0.67550000  0.74050000  0.48760000  0.00000000
O        O    0.17550000  0.75950000  0.98760000  0.00000000
O        O    0.17550000  0.24050000  0.98760000  0.00000000
O        O    0.32450000  0.74050000  0.48760000  0.00000000
O        O    0.32450000  0.25950000  0.48760000  0.00000000
O        O    0.82450000  0.75950000  0.98760000  0.00000000
O        O    0.82450000  0.24050000  0.98760000  0.00000000
O        O    0.67550000  0.25950000  0.48760000  0.00000000
O        O    0.32550000  0.22530000  0.25240000  0.00000000
O        O    0.82550000  0.27470000  0.75240000  0.00000000
O        O    0.82550000  0.72530000  0.75240000  0.00000000
O        O    0.67450000  0.22530000  0.25240000  0.00000000
O        O    0.67450000  0.77470000  0.25240000  0.00000000
O        O    0.17450000  0.27470000  0.75240000  0.00000000
O        O    0.17450000  0.72530000  0.75240000  0.00000000
O        O    0.32550000  0.77470000  0.25240000  0.00000000
O        O    0.50000000  0.09120000  0.31730000  0.00000000
O        O    0.00000000  0.40880000  0.81730000  0.00000000
O        O    0.00000000  0.59120000  0.81730000  0.00000000
O        O    0.50000000  0.90880000  0.31730000  0.00000000
O        O    0.50000000  0.00000000  0.09460000  0.00000000
O        O    0.00000000  0.50000000  0.59460000  0.00000000
O        O    0.75310000  0.59160000  0.66320000  0.00000000
O        O    0.25310000  0.90840000  0.16320000  0.00000000
O        O    0.25310000  0.09160000  0.16320000  0.00000000
O        O    0.24690000  0.59160000  0.66320000  0.00000000
O        O    0.24690000  0.40840000  0.66320000  0.00000000
O        O    0.74690000  0.90840000  0.16320000  0.00000000
O        O    0.74690000  0.09160000  0.16320000  0.00000000
O        O    0.75310000  0.40840000  0.66320000  0.00000000
O        O    0.50000000  0.70310000  0.70790000  0.00000000
O        O    0.00000000  0.79690000  0.20790000  0.00000000
O        O    0.00000000  0.20310000  0.20790000  0.00000000
O        O    0.50000000  0.29690000  0.70790000  0.00000000
O        O    0.74410000  0.76880000  0.62210000  0.00000000
O        O    0.24410000  0.73120000  0.12210000  0.00000000
O        O    0.24410000  0.26880000  0.12210000  0.00000000
O        O    0.25590000  0.76880000  0.62210000  0.00000000
O        O    0.25590000  0.23120000  0.62210000  0.00000000
O        O    0.75590000  0.73120000  0.12210000  0.00000000
O        O    0.75590000  0.26880000  0.12210000  0.00000000
O        O    0.74410000  0.23120000  0.62210000  0.00000000
O        O    0.00000000  0.22340000  0.52760000  0.00000000
O        O    0.50000000  0.27660000  0.02760000  0.00000000
O        O    0.50000000  0.72340000  0.02760000  0.00000000
O        O    0.00000000  0.77660000  0.52760000  0.00000000
O        O    0.50000000  0.50000000  0.96110000  0.00000000
O        O    0.00000000  0.00000000  0.46110000  0.00000000
O        O    0.17480000  0.50000000  0.91490000  0.00000000
O        O    0.32520000  0.00000000  0.41490000  0.00000000
O        O    0.82520000  0.50000000  0.91490000  0.00000000
O        O    0.67480000  0.00000000  0.41490000  0.00000000
O        O    0.75700000  0.09170000  0.53190000  0.00000000
O        O    0.25700000  0.40830000  0.03190000  0.00000000
O        O    0.25700000  0.59170000  0.03190000  0.00000000
O        O    0.24300000  0.09170000  0.53190000  0.00000000
O        O    0.24300000  0.90830000  0.53190000  0.00000000
O        O    0.74300000  0.40830000  0.03190000  0.00000000
O        O    0.74300000  0.59170000  0.03190000  0.00000000
O        O    0.75700000  0.90830000  0.53190000  0.00000000
