data_MOR_SI

_cell_length_a  13.68806962
_cell_length_b  13.68806962
_cell_length_c  7.52800000
_cell_angle_alpha  90.00000000
_cell_angle_beta  90.00000000
_cell_angle_gamma  97.16743903


_symmetry_space_group_name_Hall ' P 1'
_symmetry_space_group_name_H-M  'P 1'
_symmetry_Int_Tables_number     1

loop_
_atom_site_label
_atom_site_type_symbol
_atom_site_fract_x
_atom_site_fract_y
_atom_site_fract_z
_atom_site_charge
Si       Si   0.22874000  0.37332000  0.45820000  0.00000000
Si       Si   0.37332000  0.22874000  0.95820000  0.00000000
Si       Si   0.37332000  0.22874000  0.54180000  0.00000000
Si       Si   0.77126000  0.62668000  0.95820000  0.00000000
Si       Si   0.22874000  0.37332000  0.04180000  0.00000000
Si       Si   0.62668000  0.77126000  0.04180000  0.00000000
Si       Si   0.77126000  0.62668000  0.54180000  0.00000000
Si       Si   0.62668000  0.77126000  0.45820000  0.00000000
Si       Si   0.99436000  0.61252000  0.45460000  0.00000000
Si       Si   0.61252000  0.99436000  0.95460000  0.00000000
Si       Si   0.61252000  0.99436000  0.54540000  0.00000000
Si       Si   0.00564000  0.38748000  0.95460000  0.00000000
Si       Si   0.99436000  0.61252000  0.04540000  0.00000000
Si       Si   0.38748000  0.00564000  0.04540000  0.00000000
Si       Si   0.00564000  0.38748000  0.54540000  0.00000000
Si       Si   0.38748000  0.00564000  0.45460000  0.00000000
Si       Si   0.29690000  0.52890000  0.75000000  0.00000000
Si       Si   0.52890000  0.29690000  0.25000000  0.00000000
Si       Si   0.70310000  0.47110000  0.25000000  0.00000000
Si       Si   0.47110000  0.70310000  0.75000000  0.00000000
Si       Si   0.14140000  0.68540000  0.75000000  0.00000000
Si       Si   0.68540000  0.14140000  0.25000000  0.00000000
Si       Si   0.85860000  0.31460000  0.25000000  0.00000000
Si       Si   0.31460000  0.85860000  0.75000000  0.00000000
O        O    0.29380000  0.45980000  0.57080000  0.00000000
O        O    0.45980000  0.29380000  0.07080000  0.00000000
O        O    0.45980000  0.29380000  0.42920000  0.00000000
O        O    0.70620000  0.54020000  0.07080000  0.00000000
O        O    0.29380000  0.45980000  0.92920000  0.00000000
O        O    0.54020000  0.70620000  0.92920000  0.00000000
O        O    0.70620000  0.54020000  0.42920000  0.00000000
O        O    0.54020000  0.70620000  0.57080000  0.00000000
O        O    0.07200000  0.68280000  0.57380000  0.00000000
O        O    0.68280000  0.07200000  0.07380000  0.00000000
O        O    0.68280000  0.07200000  0.42620000  0.00000000
O        O    0.92800000  0.31720000  0.07380000  0.00000000
O        O    0.07200000  0.68280000  0.92620000  0.00000000
O        O    0.31720000  0.92800000  0.92620000  0.00000000
O        O    0.92800000  0.31720000  0.42620000  0.00000000
O        O    0.31720000  0.92800000  0.57380000  0.00000000
O        O    0.11440000  0.35920000  0.51130000  0.00000000
O        O    0.35920000  0.11440000  0.01130000  0.00000000
O        O    0.35920000  0.11440000  0.48870000  0.00000000
O        O    0.88560000  0.64080000  0.01130000  0.00000000
O        O    0.11440000  0.35920000  0.98870000  0.00000000
O        O    0.64080000  0.88560000  0.98870000  0.00000000
O        O    0.88560000  0.64080000  0.48870000  0.00000000
O        O    0.64080000  0.88560000  0.51130000  0.00000000
O        O    0.20830000  0.59690000  0.75000000  0.00000000
O        O    0.59690000  0.20830000  0.25000000  0.00000000
O        O    0.79170000  0.40310000  0.25000000  0.00000000
O        O    0.40310000  0.79170000  0.75000000  0.00000000
O        O    0.02520000  0.63600000  0.25000000  0.00000000
O        O    0.63600000  0.02520000  0.75000000  0.00000000
O        O    0.97480000  0.36400000  0.75000000  0.00000000
O        O    0.36400000  0.97480000  0.25000000  0.00000000
O        O    0.24430000  0.40190000  0.25000000  0.00000000
O        O    0.40190000  0.24430000  0.75000000  0.00000000
O        O    0.75570000  0.59810000  0.75000000  0.00000000
O        O    0.59810000  0.75570000  0.25000000  0.00000000
O        O    0.26760000  0.26760000  0.00000000  0.00000000
O        O    0.73240000  0.73240000  0.00000000  0.00000000
O        O    0.26760000  0.26760000  0.50000000  0.00000000
O        O    0.73240000  0.73240000  0.50000000  0.00000000
O        O    0.00000000  0.50000000  0.00000000  0.00000000
O        O    0.50000000  0.00000000  0.00000000  0.00000000
O        O    0.50000000  0.00000000  0.50000000  0.00000000
O        O    0.00000000  0.50000000  0.50000000  0.00000000
O        O    0.59290000  0.40710000  0.25000000  0.00000000
O        O    0.40710000  0.59290000  0.75000000  0.00000000
O        O    0.79390000  0.20610000  0.25000000  0.00000000
O        O    0.20610000  0.79390000  0.75000000  0.00000000
