data_MOR_SI

_cell_length_a  18.11000000
_cell_length_b  20.53000000
_cell_length_c  7.52800000
_cell_angle_alpha  90.00000000
_cell_angle_beta  90.00000000
_cell_angle_gamma  90.00000000


_symmetry_space_group_name_Hall ' P 1'
_symmetry_space_group_name_H-M  'P 1'
_symmetry_Int_Tables_number     1

loop_
_atom_site_label
_atom_site_type_symbol
_atom_site_fract_x
_atom_site_fract_y
_atom_site_fract_z
_atom_site_charge
Si       Si   0.30103000  0.92771000  0.54180000  2.05000000
Si       Si   0.30103000  0.07229000  0.04180000  2.05000000
Si       Si   0.80103000  0.57229000  0.45820000  2.05000000
Si       Si   0.19897000  0.57229000  0.04180000  2.05000000
Si       Si   0.30103000  0.92771000  0.95820000  2.05000000
Si       Si   0.19897000  0.42771000  0.95820000  2.05000000
Si       Si   0.69897000  0.07229000  0.45820000  2.05000000
Si       Si   0.80103000  0.42771000  0.95820000  2.05000000
Si       Si   0.30103000  0.07229000  0.45820000  2.05000000
Si       Si   0.69897000  0.07229000  0.04180000  2.05000000
Si       Si   0.69897000  0.92771000  0.95820000  2.05000000
Si       Si   0.80103000  0.57229000  0.04180000  2.05000000
Si       Si   0.19897000  0.42771000  0.54180000  2.05000000
Si       Si   0.19897000  0.57229000  0.45820000  2.05000000
Si       Si   0.80103000  0.42771000  0.54180000  2.05000000
Si       Si   0.69897000  0.92771000  0.54180000  2.05000000
Si       Si   0.30344000  0.69092000  0.54540000  2.05000000
Si       Si   0.30344000  0.30908000  0.04540000  2.05000000
Si       Si   0.80344000  0.80908000  0.45460000  2.05000000
Si       Si   0.19656000  0.80908000  0.04540000  2.05000000
Si       Si   0.30344000  0.69092000  0.95460000  2.05000000
Si       Si   0.19656000  0.19092000  0.95460000  2.05000000
Si       Si   0.69656000  0.30908000  0.45460000  2.05000000
Si       Si   0.80344000  0.19092000  0.95460000  2.05000000
Si       Si   0.30344000  0.30908000  0.45460000  2.05000000
Si       Si   0.69656000  0.30908000  0.04540000  2.05000000
Si       Si   0.69656000  0.69092000  0.95460000  2.05000000
Si       Si   0.80344000  0.80908000  0.04540000  2.05000000
Si       Si   0.19656000  0.19092000  0.54540000  2.05000000
Si       Si   0.19656000  0.80908000  0.45460000  2.05000000
Si       Si   0.80344000  0.19092000  0.54540000  2.05000000
Si       Si   0.69656000  0.69092000  0.54540000  2.05000000
Si       Si   0.41290000  0.88400000  0.25000000  2.05000000
Si       Si   0.41290000  0.11600000  0.75000000  2.05000000
Si       Si   0.58710000  0.11600000  0.75000000  2.05000000
Si       Si   0.91290000  0.61600000  0.75000000  2.05000000
Si       Si   0.08710000  0.38400000  0.25000000  2.05000000
Si       Si   0.08710000  0.61600000  0.75000000  2.05000000
Si       Si   0.91290000  0.38400000  0.25000000  2.05000000
Si       Si   0.58710000  0.88400000  0.25000000  2.05000000
Si       Si   0.41340000  0.72800000  0.25000000  2.05000000
Si       Si   0.41340000  0.27200000  0.75000000  2.05000000
Si       Si   0.58660000  0.27200000  0.75000000  2.05000000
Si       Si   0.91340000  0.77200000  0.75000000  2.05000000
Si       Si   0.08660000  0.22800000  0.25000000  2.05000000
Si       Si   0.08660000  0.77200000  0.75000000  2.05000000
Si       Si   0.91340000  0.22800000  0.25000000  2.05000000
Si       Si   0.58660000  0.72800000  0.25000000  2.05000000
O        O    0.37680000  0.91700000  0.42920000 -1.02500000
O        O    0.37680000  0.08300000  0.92920000 -1.02500000
O        O    0.87680000  0.58300000  0.57080000 -1.02500000
O        O    0.12320000  0.58300000  0.92920000 -1.02500000
O        O    0.37680000  0.91700000  0.07080000 -1.02500000
O        O    0.12320000  0.41700000  0.07080000 -1.02500000
O        O    0.62320000  0.08300000  0.57080000 -1.02500000
O        O    0.87680000  0.41700000  0.07080000 -1.02500000
O        O    0.37680000  0.08300000  0.57080000 -1.02500000
O        O    0.62320000  0.08300000  0.92920000 -1.02500000
O        O    0.62320000  0.91700000  0.07080000 -1.02500000
O        O    0.87680000  0.58300000  0.92920000 -1.02500000
O        O    0.12320000  0.41700000  0.42920000 -1.02500000
O        O    0.12320000  0.58300000  0.57080000 -1.02500000
O        O    0.87680000  0.41700000  0.42920000 -1.02500000
O        O    0.62320000  0.91700000  0.42920000 -1.02500000
O        O    0.37740000  0.69460000  0.42620000 -1.02500000
O        O    0.37740000  0.30540000  0.92620000 -1.02500000
O        O    0.87740000  0.80540000  0.57380000 -1.02500000
O        O    0.12260000  0.80540000  0.92620000 -1.02500000
O        O    0.37740000  0.69460000  0.07380000 -1.02500000
O        O    0.12260000  0.19460000  0.07380000 -1.02500000
O        O    0.62260000  0.30540000  0.57380000 -1.02500000
O        O    0.87740000  0.19460000  0.07380000 -1.02500000
O        O    0.37740000  0.30540000  0.57380000 -1.02500000
O        O    0.62260000  0.30540000  0.92620000 -1.02500000
O        O    0.62260000  0.69460000  0.07380000 -1.02500000
O        O    0.87740000  0.80540000  0.92620000 -1.02500000
O        O    0.12260000  0.19460000  0.42620000 -1.02500000
O        O    0.12260000  0.80540000  0.57380000 -1.02500000
O        O    0.87740000  0.19460000  0.42620000 -1.02500000
O        O    0.62260000  0.69460000  0.42620000 -1.02500000
O        O    0.23680000  0.87760000  0.48870000 -1.02500000
O        O    0.23680000  0.12240000  0.98870000 -1.02500000
O        O    0.73680000  0.62240000  0.51130000 -1.02500000
O        O    0.26320000  0.62240000  0.98870000 -1.02500000
O        O    0.23680000  0.87760000  0.01130000 -1.02500000
O        O    0.26320000  0.37760000  0.01130000 -1.02500000
O        O    0.76320000  0.12240000  0.51130000 -1.02500000
O        O    0.73680000  0.37760000  0.01130000 -1.02500000
O        O    0.23680000  0.12240000  0.51130000 -1.02500000
O        O    0.76320000  0.12240000  0.98870000 -1.02500000
O        O    0.76320000  0.87760000  0.01130000 -1.02500000
O        O    0.73680000  0.62240000  0.98870000 -1.02500000
O        O    0.26320000  0.37760000  0.48870000 -1.02500000
O        O    0.26320000  0.62240000  0.51130000 -1.02500000
O        O    0.73680000  0.37760000  0.48870000 -1.02500000
O        O    0.76320000  0.87760000  0.48870000 -1.02500000
O        O    0.40260000  0.80570000  0.25000000 -1.02500000
O        O    0.40260000  0.19430000  0.75000000 -1.02500000
O        O    0.59740000  0.19430000  0.75000000 -1.02500000
O        O    0.90260000  0.69430000  0.75000000 -1.02500000
O        O    0.09740000  0.30570000  0.25000000 -1.02500000
O        O    0.09740000  0.69430000  0.75000000 -1.02500000
O        O    0.90260000  0.30570000  0.25000000 -1.02500000
O        O    0.59740000  0.80570000  0.25000000 -1.02500000
O        O    0.33060000  0.69460000  0.75000000 -1.02500000
O        O    0.33060000  0.30540000  0.25000000 -1.02500000
O        O    0.66940000  0.30540000  0.25000000 -1.02500000
O        O    0.83060000  0.80540000  0.25000000 -1.02500000
O        O    0.16940000  0.19460000  0.75000000 -1.02500000
O        O    0.16940000  0.80540000  0.25000000 -1.02500000
O        O    0.83060000  0.19460000  0.75000000 -1.02500000
O        O    0.66940000  0.69460000  0.75000000 -1.02500000
O        O    0.32310000  0.92120000  0.75000000 -1.02500000
O        O    0.32310000  0.07880000  0.25000000 -1.02500000
O        O    0.67690000  0.07880000  0.25000000 -1.02500000
O        O    0.82310000  0.57880000  0.25000000 -1.02500000
O        O    0.17690000  0.42120000  0.75000000 -1.02500000
O        O    0.17690000  0.57880000  0.25000000 -1.02500000
O        O    0.82310000  0.42120000  0.75000000 -1.02500000
O        O    0.67690000  0.92120000  0.75000000 -1.02500000
O        O    0.26760000  0.00000000  0.00000000 -1.02500000
O        O    0.23240000  0.50000000  0.00000000 -1.02500000
O        O    0.26760000  0.00000000  0.50000000 -1.02500000
O        O    0.73240000  0.00000000  0.00000000 -1.02500000
O        O    0.76760000  0.50000000  0.00000000 -1.02500000
O        O    0.23240000  0.50000000  0.50000000 -1.02500000
O        O    0.76760000  0.50000000  0.50000000 -1.02500000
O        O    0.73240000  0.00000000  0.50000000 -1.02500000
O        O    0.25000000  0.75000000  0.00000000 -1.02500000
O        O    0.25000000  0.25000000  0.00000000 -1.02500000
O        O    0.75000000  0.25000000  0.00000000 -1.02500000
O        O    0.75000000  0.75000000  0.00000000 -1.02500000
O        O    0.25000000  0.25000000  0.50000000 -1.02500000
O        O    0.25000000  0.75000000  0.50000000 -1.02500000
O        O    0.75000000  0.25000000  0.50000000 -1.02500000
O        O    0.75000000  0.75000000  0.50000000 -1.02500000
O        O    0.50000000  0.09290000  0.75000000 -1.02500000
O        O    0.00000000  0.59290000  0.75000000 -1.02500000
O        O    0.00000000  0.40710000  0.25000000 -1.02500000
O        O    0.50000000  0.90710000  0.25000000 -1.02500000
O        O    0.50000000  0.29390000  0.75000000 -1.02500000
O        O    0.00000000  0.79390000  0.75000000 -1.02500000
O        O    0.00000000  0.20610000  0.25000000 -1.02500000
O        O    0.50000000  0.70610000  0.25000000 -1.02500000
