data_MTW_SI

_cell_length_a  12.68175501
_cell_length_b  12.68175501
_cell_length_c  24.32750000
_cell_angle_alpha  72.63873600
_cell_angle_beta  72.63873600
_cell_angle_gamma  22.79583389


_symmetry_space_group_name_Hall ' P 1'
_symmetry_space_group_name_H-M  'P 1'
_symmetry_Int_Tables_number     1

loop_
_atom_site_label
_atom_site_type_symbol
_atom_site_fract_x
_atom_site_fract_y
_atom_site_fract_z
_atom_site_charge
Si       Si   0.97210000  0.90830000  0.58710000  0.00000000
Si       Si   0.02790000  0.09170000  0.41290000  0.00000000
Si       Si   0.90830000  0.97210000  0.08710000  0.00000000
Si       Si   0.09170000  0.02790000  0.91290000  0.00000000
Si       Si   0.99700000  0.13860000  0.54110000  0.00000000
Si       Si   0.00300000  0.86140000  0.45890000  0.00000000
Si       Si   0.13860000  0.99700000  0.04110000  0.00000000
Si       Si   0.86140000  0.00300000  0.95890000  0.00000000
Si       Si   0.40740000  0.34340000  0.63910000  0.00000000
Si       Si   0.59260000  0.65660000  0.36090000  0.00000000
Si       Si   0.34340000  0.40740000  0.13910000  0.00000000
Si       Si   0.65660000  0.59260000  0.86090000  0.00000000
Si       Si   0.55560000  0.71200000  0.55160000  0.00000000
Si       Si   0.44440000  0.28800000  0.44840000  0.00000000
Si       Si   0.71200000  0.55560000  0.05160000  0.00000000
Si       Si   0.28800000  0.44440000  0.94840000  0.00000000
Si       Si   0.36580000  0.20140000  0.57250000  0.00000000
Si       Si   0.63420000  0.79860000  0.42750000  0.00000000
Si       Si   0.20140000  0.36580000  0.07250000  0.00000000
Si       Si   0.79860000  0.63420000  0.92750000  0.00000000
Si       Si   0.79920000  0.62860000  0.61680000  0.00000000
Si       Si   0.20080000  0.37140000  0.38320000  0.00000000
Si       Si   0.62860000  0.79920000  0.11680000  0.00000000
Si       Si   0.37140000  0.20080000  0.88320000  0.00000000
Si       Si   0.29690000  0.27690000  0.75370000  0.00000000
Si       Si   0.70310000  0.72310000  0.24630000  0.00000000
Si       Si   0.27690000  0.29690000  0.25370000  0.00000000
Si       Si   0.72310000  0.70310000  0.74630000  0.00000000
O        O    0.93330000  0.92270000  0.52700000  0.00000000
O        O    0.06670000  0.07730000  0.47300000  0.00000000
O        O    0.92270000  0.93330000  0.02700000  0.00000000
O        O    0.07730000  0.06670000  0.97300000  0.00000000
O        O    0.97590000  0.03090000  0.57750000  0.00000000
O        O    0.02410000  0.96910000  0.42250000  0.00000000
O        O    0.03090000  0.97590000  0.07750000  0.00000000
O        O    0.96910000  0.02410000  0.92250000  0.00000000
O        O    0.24650000  0.60250000  0.61280000  0.00000000
O        O    0.75350000  0.39750000  0.38720000  0.00000000
O        O    0.60250000  0.24650000  0.11280000  0.00000000
O        O    0.39750000  0.75350000  0.88720000  0.00000000
O        O    0.32560000  0.33460000  0.60440000  0.00000000
O        O    0.67440000  0.66540000  0.39560000  0.00000000
O        O    0.33460000  0.32560000  0.10440000  0.00000000
O        O    0.66540000  0.67440000  0.89560000  0.00000000
O        O    0.72170000  0.44650000  0.54870000  0.00000000
O        O    0.27830000  0.55350000  0.45130000  0.00000000
O        O    0.44650000  0.72170000  0.04870000  0.00000000
O        O    0.55350000  0.27830000  0.95130000  0.00000000
O        O    0.32340000  0.36700000  0.70280000  0.00000000
O        O    0.67660000  0.63300000  0.29720000  0.00000000
O        O    0.36700000  0.32340000  0.20280000  0.00000000
O        O    0.63300000  0.67660000  0.79720000  0.00000000
O        O    0.49450000  0.00630000  0.73710000  0.00000000
O        O    0.50550000  0.99370000  0.26290000  0.00000000
O        O    0.00630000  0.49450000  0.23710000  0.00000000
O        O    0.99370000  0.50550000  0.76290000  0.00000000
O        O    0.63180000  0.88860000  0.59220000  0.00000000
O        O    0.36820000  0.11140000  0.40780000  0.00000000
O        O    0.88860000  0.63180000  0.09220000  0.00000000
O        O    0.11140000  0.36820000  0.90780000  0.00000000
O        O    0.66550000  0.64530000  0.60890000  0.00000000
O        O    0.33450000  0.35470000  0.39110000  0.00000000
O        O    0.64530000  0.66550000  0.10890000  0.00000000
O        O    0.35470000  0.33450000  0.89110000  0.00000000
O        O    0.63330000  0.73730000  0.49740000  0.00000000
O        O    0.36670000  0.26270000  0.50260000  0.00000000
O        O    0.73730000  0.63330000  0.99740000  0.00000000
O        O    0.26270000  0.36670000  0.00260000  0.00000000
O        O    0.39020000  0.20920000  0.81140000  0.00000000
O        O    0.60980000  0.79080000  0.18860000  0.00000000
O        O    0.20920000  0.39020000  0.31140000  0.00000000
O        O    0.79080000  0.60980000  0.68860000  0.00000000
O        O    0.73650000  0.06250000  0.62980000  0.00000000
O        O    0.26350000  0.93750000  0.37020000  0.00000000
O        O    0.06250000  0.73650000  0.12980000  0.00000000
O        O    0.93750000  0.26350000  0.87020000  0.00000000
O        O    0.24410000  0.96970000  0.56060000  0.00000000
O        O    0.75590000  0.03030000  0.43940000  0.00000000
O        O    0.96970000  0.24410000  0.06060000  0.00000000
O        O    0.03030000  0.75590000  0.93940000  0.00000000
O        O    0.11710000  0.35150000  0.59070000  0.00000000
O        O    0.88290000  0.64850000  0.40930000  0.00000000
O        O    0.35150000  0.11710000  0.09070000  0.00000000
O        O    0.64850000  0.88290000  0.90930000  0.00000000
