data_MTW_SI

_cell_length_a  24.86330000
_cell_length_b  5.01238000
_cell_length_c  24.32750000
_cell_angle_alpha  90.00000000
_cell_angle_beta  107.72200000
_cell_angle_gamma  90.00000000


_symmetry_space_group_name_Hall ' P 1'
_symmetry_space_group_name_H-M  'P 1'
_symmetry_Int_Tables_number     1

loop_
_atom_site_label
_atom_site_type_symbol
_atom_site_fract_x
_atom_site_fract_y
_atom_site_fract_z
_atom_site_charge
Si       Si   0.44020000  0.53190000  0.41290000  2.05000000
Si       Si   0.55980000  0.46810000  0.58710000  2.05000000
Si       Si   0.44020000  0.46810000  0.91290000  2.05000000
Si       Si   0.05980000  0.03190000  0.08710000  2.05000000
Si       Si   0.05980000  0.96810000  0.58710000  2.05000000
Si       Si   0.94020000  0.96810000  0.91290000  2.05000000
Si       Si   0.55980000  0.53190000  0.08710000  2.05000000
Si       Si   0.94020000  0.03190000  0.41290000  2.05000000
Si       Si   0.06780000  0.92920000  0.45890000  2.05000000
Si       Si   0.93220000  0.07080000  0.54110000  2.05000000
Si       Si   0.06780000  0.07080000  0.95890000  2.05000000
Si       Si   0.43220000  0.42920000  0.04110000  2.05000000
Si       Si   0.43220000  0.57080000  0.54110000  2.05000000
Si       Si   0.56780000  0.57080000  0.95890000  2.05000000
Si       Si   0.93220000  0.92920000  0.04110000  2.05000000
Si       Si   0.56780000  0.42920000  0.45890000  2.05000000
Si       Si   0.37540000  0.03200000  0.36090000  2.05000000
Si       Si   0.62460000  0.96800000  0.63910000  2.05000000
Si       Si   0.37540000  0.96800000  0.86090000  2.05000000
Si       Si   0.12460000  0.53200000  0.13910000  2.05000000
Si       Si   0.12460000  0.46800000  0.63910000  2.05000000
Si       Si   0.87540000  0.46800000  0.86090000  2.05000000
Si       Si   0.62460000  0.03200000  0.13910000  2.05000000
Si       Si   0.87540000  0.53200000  0.36090000  2.05000000
Si       Si   0.13380000  0.42180000  0.44840000  2.05000000
Si       Si   0.86620000  0.57820000  0.55160000  2.05000000
Si       Si   0.13380000  0.57820000  0.94840000  2.05000000
Si       Si   0.36620000  0.92180000  0.05160000  2.05000000
Si       Si   0.36620000  0.07820000  0.55160000  2.05000000
Si       Si   0.63380000  0.07820000  0.94840000  2.05000000
Si       Si   0.86620000  0.42180000  0.05160000  2.05000000
Si       Si   0.63380000  0.92180000  0.44840000  2.05000000
Si       Si   0.28360000  0.08220000  0.42750000  2.05000000
Si       Si   0.71640000  0.91780000  0.57250000  2.05000000
Si       Si   0.28360000  0.91780000  0.92750000  2.05000000
Si       Si   0.21640000  0.58220000  0.07250000  2.05000000
Si       Si   0.21640000  0.41780000  0.57250000  2.05000000
Si       Si   0.78360000  0.41780000  0.92750000  2.05000000
Si       Si   0.71640000  0.08220000  0.07250000  2.05000000
Si       Si   0.78360000  0.58220000  0.42750000  2.05000000
Si       Si   0.21390000  0.58530000  0.38320000  2.05000000
Si       Si   0.78610000  0.41470000  0.61680000  2.05000000
Si       Si   0.21390000  0.41470000  0.88320000  2.05000000
Si       Si   0.28610000  0.08530000  0.11680000  2.05000000
Si       Si   0.28610000  0.91470000  0.61680000  2.05000000
Si       Si   0.71390000  0.91470000  0.88320000  2.05000000
Si       Si   0.78610000  0.58530000  0.11680000  2.05000000
Si       Si   0.71390000  0.08530000  0.38320000  2.05000000
Si       Si   0.28690000  0.01000000  0.24630000  2.05000000
Si       Si   0.71310000  0.99000000  0.75370000  2.05000000
Si       Si   0.28690000  0.99000000  0.74630000  2.05000000
Si       Si   0.21310000  0.51000000  0.25370000  2.05000000
Si       Si   0.21310000  0.49000000  0.75370000  2.05000000
Si       Si   0.78690000  0.49000000  0.74630000  2.05000000
Si       Si   0.71310000  0.01000000  0.25370000  2.05000000
Si       Si   0.78690000  0.51000000  0.24630000  2.05000000
O        O    0.42800000  0.50530000  0.47300000 -1.02500000
O        O    0.57200000  0.49470000  0.52700000 -1.02500000
O        O    0.42800000  0.49470000  0.97300000 -1.02500000
O        O    0.07200000  0.00530000  0.02700000 -1.02500000
O        O    0.07200000  0.99470000  0.52700000 -1.02500000
O        O    0.92800000  0.99470000  0.97300000 -1.02500000
O        O    0.57200000  0.50530000  0.02700000 -1.02500000
O        O    0.92800000  0.00530000  0.47300000 -1.02500000
O        O    0.50340000  0.47250000  0.42250000 -1.02500000
O        O    0.49660000  0.52750000  0.57750000 -1.02500000
O        O    0.50340000  0.52750000  0.92250000 -1.02500000
O        O    0.99660000  0.97250000  0.07750000 -1.02500000
O        O    0.99660000  0.02750000  0.57750000 -1.02500000
O        O    0.00340000  0.02750000  0.92250000 -1.02500000
O        O    0.49660000  0.47250000  0.07750000 -1.02500000
O        O    0.00340000  0.97250000  0.42250000 -1.02500000
O        O    0.42450000  0.82200000  0.38720000 -1.02500000
O        O    0.57550000  0.17800000  0.61280000 -1.02500000
O        O    0.42450000  0.17800000  0.88720000 -1.02500000
O        O    0.07550000  0.32200000  0.11280000 -1.02500000
O        O    0.07550000  0.67800000  0.61280000 -1.02500000
O        O    0.92450000  0.67800000  0.88720000 -1.02500000
O        O    0.57550000  0.82200000  0.11280000 -1.02500000
O        O    0.92450000  0.32200000  0.38720000 -1.02500000
O        O    0.33010000  0.99550000  0.39560000 -1.02500000
O        O    0.66990000  0.00450000  0.60440000 -1.02500000
O        O    0.33010000  0.00450000  0.89560000 -1.02500000
O        O    0.16990000  0.49550000  0.10440000 -1.02500000
O        O    0.16990000  0.50450000  0.60440000 -1.02500000
O        O    0.83010000  0.50450000  0.89560000 -1.02500000
O        O    0.66990000  0.99550000  0.10440000 -1.02500000
O        O    0.83010000  0.49550000  0.39560000 -1.02500000
O        O    0.08410000  0.63760000  0.45130000 -1.02500000
O        O    0.91590000  0.36240000  0.54870000 -1.02500000
O        O    0.08410000  0.36240000  0.95130000 -1.02500000
O        O    0.41590000  0.13760000  0.04870000 -1.02500000
O        O    0.41590000  0.86240000  0.54870000 -1.02500000
O        O    0.58410000  0.86240000  0.95130000 -1.02500000
O        O    0.91590000  0.63760000  0.04870000 -1.02500000
O        O    0.58410000  0.13760000  0.45130000 -1.02500000
O        O    0.34520000  0.97820000  0.29720000 -1.02500000
O        O    0.65480000  0.02180000  0.70280000 -1.02500000
O        O    0.34520000  0.02180000  0.79720000 -1.02500000
O        O    0.15480000  0.47820000  0.20280000 -1.02500000
O        O    0.15480000  0.52180000  0.70280000 -1.02500000
O        O    0.84520000  0.52180000  0.79720000 -1.02500000
O        O    0.65480000  0.97820000  0.20280000 -1.02500000
O        O    0.84520000  0.47820000  0.29720000 -1.02500000
O        O    0.25040000  0.24410000  0.26290000 -1.02500000
O        O    0.74960000  0.75590000  0.73710000 -1.02500000
O        O    0.25040000  0.75590000  0.76290000 -1.02500000
O        O    0.24960000  0.74410000  0.23710000 -1.02500000
O        O    0.24960000  0.25590000  0.73710000 -1.02500000
O        O    0.75040000  0.25590000  0.76290000 -1.02500000
O        O    0.74960000  0.24410000  0.23710000 -1.02500000
O        O    0.75040000  0.74410000  0.26290000 -1.02500000
O        O    0.26020000  0.37160000  0.40780000 -1.02500000
O        O    0.73980000  0.62840000  0.59220000 -1.02500000
O        O    0.26020000  0.62840000  0.90780000 -1.02500000
O        O    0.23980000  0.87160000  0.09220000 -1.02500000
O        O    0.23980000  0.12840000  0.59220000 -1.02500000
O        O    0.76020000  0.12840000  0.90780000 -1.02500000
O        O    0.73980000  0.37160000  0.09220000 -1.02500000
O        O    0.76020000  0.87160000  0.40780000 -1.02500000
O        O    0.15540000  0.51010000  0.39110000 -1.02500000
O        O    0.84460000  0.48990000  0.60890000 -1.02500000
O        O    0.15540000  0.48990000  0.89110000 -1.02500000
O        O    0.34460000  0.01010000  0.10890000 -1.02500000
O        O    0.34460000  0.98990000  0.60890000 -1.02500000
O        O    0.65540000  0.98990000  0.89110000 -1.02500000
O        O    0.84460000  0.51010000  0.10890000 -1.02500000
O        O    0.65540000  0.01010000  0.39110000 -1.02500000
O        O    0.18530000  0.44800000  0.50260000 -1.02500000
O        O    0.81470000  0.55200000  0.49740000 -1.02500000
O        O    0.18530000  0.55200000  0.00260000 -1.02500000
O        O    0.31470000  0.94800000  0.99740000 -1.02500000
O        O    0.31470000  0.05200000  0.49740000 -1.02500000
O        O    0.68530000  0.05200000  0.00260000 -1.02500000
O        O    0.81470000  0.44800000  0.99740000 -1.02500000
O        O    0.68530000  0.94800000  0.50260000 -1.02500000
O        O    0.29970000  0.09050000  0.18860000 -1.02500000
O        O    0.70030000  0.90950000  0.81140000 -1.02500000
O        O    0.29970000  0.90950000  0.68860000 -1.02500000
O        O    0.20030000  0.59050000  0.31140000 -1.02500000
O        O    0.20030000  0.40950000  0.81140000 -1.02500000
O        O    0.79970000  0.40950000  0.68860000 -1.02500000
O        O    0.70030000  0.09050000  0.31140000 -1.02500000
O        O    0.79970000  0.59050000  0.18860000 -1.02500000
O        O    0.39950000  0.33700000  0.37020000 -1.02500000
O        O    0.60050000  0.66300000  0.62980000 -1.02500000
O        O    0.39950000  0.66300000  0.87020000 -1.02500000
O        O    0.10050000  0.83700000  0.12980000 -1.02500000
O        O    0.10050000  0.16300000  0.62980000 -1.02500000
O        O    0.89950000  0.16300000  0.87020000 -1.02500000
O        O    0.60050000  0.33700000  0.12980000 -1.02500000
O        O    0.89950000  0.83700000  0.37020000 -1.02500000
O        O    0.10690000  0.13720000  0.43940000 -1.02500000
O        O    0.89310000  0.86280000  0.56060000 -1.02500000
O        O    0.10690000  0.86280000  0.93940000 -1.02500000
O        O    0.39310000  0.63720000  0.06060000 -1.02500000
O        O    0.39310000  0.36280000  0.56060000 -1.02500000
O        O    0.60690000  0.36280000  0.93940000 -1.02500000
O        O    0.89310000  0.13720000  0.06060000 -1.02500000
O        O    0.60690000  0.63720000  0.43940000 -1.02500000
O        O    0.23430000  0.88280000  0.40930000 -1.02500000
O        O    0.76570000  0.11720000  0.59070000 -1.02500000
O        O    0.23430000  0.11720000  0.90930000 -1.02500000
O        O    0.26570000  0.38280000  0.09070000 -1.02500000
O        O    0.26570000  0.61720000  0.59070000 -1.02500000
O        O    0.73430000  0.61720000  0.90930000 -1.02500000
O        O    0.76570000  0.88280000  0.09070000 -1.02500000
O        O    0.73430000  0.38280000  0.40930000 -1.02500000
