data_RHO

_cell_length_a  13.01722784
_cell_length_b  13.01722784
_cell_length_c  13.01722784
_cell_angle_alpha  109.47122063
_cell_angle_beta  109.47122063
_cell_angle_gamma  109.47122063


_symmetry_space_group_name_Hall ' P 1'
_symmetry_space_group_name_H-M  'P 1'
_symmetry_Int_Tables_number     1

loop_
_atom_site_label
_atom_site_type_symbol
_atom_site_fract_x
_atom_site_fract_y
_atom_site_fract_z
_atom_site_charge
Si       Si   0.35420000  0.64580000  0.50000000  0.00000000
Si       Si   0.14580000  0.29160000  0.64580000  0.00000000
Si       Si   0.29160000  0.14580000  0.64580000  0.00000000
Si       Si   0.85420000  0.70840000  0.35420000  0.00000000
Si       Si   0.14580000  0.64580000  0.29160000  0.00000000
Si       Si   0.35420000  0.85420000  0.70840000  0.00000000
Si       Si   0.29160000  0.64580000  0.14580000  0.00000000
Si       Si   0.14580000  0.85420000  0.50000000  0.00000000
Si       Si   0.85420000  0.14580000  0.50000000  0.00000000
Si       Si   0.85420000  0.35420000  0.70840000  0.00000000
Si       Si   0.50000000  0.64580000  0.35420000  0.00000000
Si       Si   0.85420000  0.50000000  0.14580000  0.00000000
Si       Si   0.70840000  0.35420000  0.85420000  0.00000000
Si       Si   0.64580000  0.14580000  0.29160000  0.00000000
Si       Si   0.64580000  0.35420000  0.50000000  0.00000000
Si       Si   0.35420000  0.70840000  0.85420000  0.00000000
Si       Si   0.50000000  0.85420000  0.14580000  0.00000000
Si       Si   0.64580000  0.29160000  0.14580000  0.00000000
Si       Si   0.70840000  0.85420000  0.35420000  0.00000000
Si       Si   0.14580000  0.50000000  0.85420000  0.00000000
Si       Si   0.35420000  0.50000000  0.64580000  0.00000000
Si       Si   0.50000000  0.35420000  0.64580000  0.00000000
Si       Si   0.64580000  0.50000000  0.35420000  0.00000000
Si       Si   0.50000000  0.14580000  0.85420000  0.00000000
O        O    0.21070000  0.82730000  0.61660000  0.00000000
O        O    0.21070000  0.59410000  0.38340000  0.00000000
O        O    0.17270000  0.78930000  0.38340000  0.00000000
O        O    0.78930000  0.38340000  0.17270000  0.00000000
O        O    0.38340000  0.78930000  0.17270000  0.00000000
O        O    0.40590000  0.78930000  0.61660000  0.00000000
O        O    0.82730000  0.21070000  0.61660000  0.00000000
O        O    0.78930000  0.17270000  0.38340000  0.00000000
O        O    0.82730000  0.61660000  0.21070000  0.00000000
O        O    0.61660000  0.40590000  0.78930000  0.00000000
O        O    0.21070000  0.38340000  0.59410000  0.00000000
O        O    0.78930000  0.40590000  0.61660000  0.00000000
O        O    0.59410000  0.21070000  0.38340000  0.00000000
O        O    0.40590000  0.61660000  0.78930000  0.00000000
O        O    0.38340000  0.17270000  0.78930000  0.00000000
O        O    0.59410000  0.38340000  0.21070000  0.00000000
O        O    0.61660000  0.78930000  0.40590000  0.00000000
O        O    0.38340000  0.59410000  0.21070000  0.00000000
O        O    0.17270000  0.38340000  0.78930000  0.00000000
O        O    0.38340000  0.21070000  0.59410000  0.00000000
O        O    0.61660000  0.82730000  0.21070000  0.00000000
O        O    0.21070000  0.61660000  0.82730000  0.00000000
O        O    0.78930000  0.61660000  0.40590000  0.00000000
O        O    0.61660000  0.21070000  0.82730000  0.00000000
O        O    1.00000000  0.46940000  0.79980000  0.00000000
O        O    0.46940000  0.66960000  0.46940000  0.00000000
O        O    0.20020000  0.20020000  0.66960000  0.00000000
O        O    1.00000000  0.79980000  0.46940000  0.00000000
O        O    0.20020000  0.66960000  0.20020000  0.00000000
O        O    1.00000000  0.20020000  0.53060000  0.00000000
O        O    0.66960000  0.20020000  0.20020000  0.00000000
O        O    0.79980000  0.33040000  0.79980000  0.00000000
O        O    0.53060000  0.53060000  0.33040000  0.00000000
O        O    0.20020000  0.00000000  0.53060000  0.00000000
O        O    0.79980000  0.46940000  1.00000000  0.00000000
O        O    0.53060000  0.00000000  0.20020000  0.00000000
O        O    0.33040000  0.53060000  0.53060000  0.00000000
O        O    0.46940000  0.46940000  0.66960000  0.00000000
O        O    1.00000000  0.53060000  0.20020000  0.00000000
O        O    0.79980000  0.79980000  0.33040000  0.00000000
O        O    0.33040000  0.79980000  0.79980000  0.00000000
O        O    0.46940000  0.79980000  0.00000000  0.00000000
O        O    0.53060000  0.20020000  1.00000000  0.00000000
O        O    0.79980000  0.00000000  0.46940000  0.00000000
O        O    0.20020000  0.53060000  1.00000000  0.00000000
O        O    0.53060000  0.33040000  0.53060000  0.00000000
O        O    0.66960000  0.46940000  0.46940000  0.00000000
O        O    0.46940000  1.00000000  0.79980000  0.00000000
