data_SAPO-56

_cell_length_a  13.75710000
_cell_length_b  13.75710000
_cell_length_c  19.93620000
_cell_angle_alpha  90.00000000
_cell_angle_beta  90.00000000
_cell_angle_gamma  120.00000000


_symmetry_space_group_name_Hall ' P 1'
_symmetry_space_group_name_H-M  'P 1'
_symmetry_Int_Tables_number     1

loop_
_atom_site_label
_atom_site_type_symbol
_atom_site_fract_x
_atom_site_fract_y
_atom_site_fract_z
_atom_site_charge
Al       Al   0.99780000  0.22950000  0.07910000  0.00000000
Al       Al   0.23170000  0.00220000  0.07910000  0.00000000
Al       Al   0.76830000  0.77050000  0.57910000  0.00000000
Al       Al   0.99780000  0.76830000  0.42090000  0.00000000
Al       Al   0.76830000  0.99780000  0.92090000  0.00000000
Al       Al   0.00220000  0.77050000  0.92090000  0.00000000
Al       Al   0.23170000  0.22950000  0.42090000  0.00000000
Al       Al   0.22950000  0.99780000  0.57910000  0.00000000
Al       Al   0.77050000  0.00220000  0.42090000  0.00000000
Al       Al   0.22950000  0.23170000  0.92090000  0.00000000
Al       Al   0.00220000  0.23170000  0.57910000  0.00000000
Al       Al   0.77050000  0.76830000  0.07910000  0.00000000
Al       Al   0.33250000  0.43740000  0.16720000  0.00000000
Al       Al   0.10490000  0.66750000  0.16720000  0.00000000
Al       Al   0.89510000  0.56260000  0.66720000  0.00000000
Al       Al   0.33250000  0.89510000  0.33280000  0.00000000
Al       Al   0.89510000  0.33250000  0.83280000  0.00000000
Al       Al   0.66750000  0.56260000  0.83280000  0.00000000
Al       Al   0.10490000  0.43740000  0.33280000  0.00000000
Al       Al   0.43740000  0.33250000  0.66720000  0.00000000
Al       Al   0.56260000  0.66750000  0.33280000  0.00000000
Al       Al   0.43740000  0.10490000  0.83280000  0.00000000
Al       Al   0.66750000  0.10490000  0.66720000  0.00000000
Al       Al   0.56260000  0.89510000  0.16720000  0.00000000
P        P    0.10590000  0.44440000  0.17310000  0.00000000
P        P    0.33850000  0.89410000  0.17310000  0.00000000
P        P    0.66150000  0.55560000  0.67310000  0.00000000
P        P    0.10590000  0.66150000  0.32690000  0.00000000
P        P    0.66150000  0.10590000  0.82690000  0.00000000
P        P    0.89410000  0.55560000  0.82690000  0.00000000
P        P    0.33850000  0.44440000  0.32690000  0.00000000
P        P    0.44440000  0.10590000  0.67310000  0.00000000
P        P    0.55560000  0.89410000  0.32690000  0.00000000
P        P    0.44440000  0.33850000  0.82690000  0.00000000
P        P    0.89410000  0.33850000  0.67310000  0.00000000
P        P    0.55560000  0.66150000  0.17310000  0.00000000
P        P    0.22990000  0.22530000  0.07550000  0.00000000
P        P    0.99540000  0.77010000  0.07550000  0.00000000
P        P    0.00460000  0.77470000  0.57550000  0.00000000
P        P    0.22990000  0.00460000  0.42450000  0.00000000
P        P    0.00460000  0.22990000  0.92450000  0.00000000
P        P    0.77010000  0.77470000  0.92450000  0.00000000
P        P    0.99540000  0.22530000  0.42450000  0.00000000
P        P    0.22530000  0.22990000  0.57550000  0.00000000
P        P    0.77470000  0.77010000  0.42450000  0.00000000
P        P    0.22530000  0.99540000  0.92450000  0.00000000
P        P    0.77010000  0.99540000  0.57550000  0.00000000
P        P    0.77470000  0.00460000  0.07550000  0.00000000
O        O    0.86800000  0.11060000  0.09900000  0.00000000
O        O    0.24260000  0.13200000  0.09900000  0.00000000
O        O    0.75740000  0.88940000  0.59900000  0.00000000
O        O    0.86800000  0.75740000  0.40100000  0.00000000
O        O    0.75740000  0.86800000  0.90100000  0.00000000
O        O    0.13200000  0.88940000  0.90100000  0.00000000
O        O    0.24260000  0.11060000  0.40100000  0.00000000
O        O    0.11060000  0.86800000  0.59900000  0.00000000
O        O    0.88940000  0.13200000  0.40100000  0.00000000
O        O    0.11060000  0.24260000  0.90100000  0.00000000
O        O    0.13200000  0.24260000  0.59900000  0.00000000
O        O    0.88940000  0.75740000  0.09900000  0.00000000
O        O    0.10980000  0.19610000  0.08950000  0.00000000
O        O    0.08630000  0.89020000  0.08950000  0.00000000
O        O    0.91370000  0.80390000  0.58950000  0.00000000
O        O    0.10980000  0.91370000  0.41050000  0.00000000
O        O    0.91370000  0.10980000  0.91050000  0.00000000
O        O    0.89020000  0.80390000  0.91050000  0.00000000
O        O    0.08630000  0.19610000  0.41050000  0.00000000
O        O    0.19610000  0.10980000  0.58950000  0.00000000
O        O    0.80390000  0.89020000  0.41050000  0.00000000
O        O    0.19610000  0.08630000  0.91050000  0.00000000
O        O    0.89020000  0.08630000  0.58950000  0.00000000
O        O    0.80390000  0.91370000  0.08950000  0.00000000
O        O    0.01900000  0.34950000  0.11900000  0.00000000
O        O    0.33050000  0.98100000  0.11900000  0.00000000
O        O    0.66950000  0.65050000  0.61900000  0.00000000
O        O    0.01900000  0.66950000  0.38100000  0.00000000
O        O    0.66950000  0.01900000  0.88100000  0.00000000
O        O    0.98100000  0.65050000  0.88100000  0.00000000
O        O    0.33050000  0.34950000  0.38100000  0.00000000
O        O    0.34950000  0.01900000  0.61900000  0.00000000
O        O    0.65050000  0.98100000  0.38100000  0.00000000
O        O    0.34950000  0.33050000  0.88100000  0.00000000
O        O    0.98100000  0.33050000  0.61900000  0.00000000
O        O    0.65050000  0.66950000  0.11900000  0.00000000
O        O    0.01810000  0.28440000  0.99890000  0.00000000
O        O    0.26630000  0.98190000  0.99890000  0.00000000
O        O    0.73370000  0.71560000  0.49890000  0.00000000
O        O    0.01810000  0.73370000  0.50110000  0.00000000
O        O    0.73370000  0.01810000  0.00110000  0.00000000
O        O    0.98190000  0.71560000  0.00110000  0.00000000
O        O    0.26630000  0.28440000  0.50110000  0.00000000
O        O    0.28440000  0.01810000  0.49890000  0.00000000
O        O    0.71560000  0.98190000  0.50110000  0.00000000
O        O    0.28440000  0.26630000  0.00110000  0.00000000
O        O    0.98190000  0.26630000  0.49890000  0.00000000
O        O    0.71560000  0.73370000  0.99890000  0.00000000
O        O    0.21400000  0.46830000  0.16050000  0.00000000
O        O    0.25430000  0.78600000  0.16050000  0.00000000
O        O    0.74570000  0.53170000  0.66050000  0.00000000
O        O    0.21400000  0.74570000  0.33950000  0.00000000
O        O    0.74570000  0.21400000  0.83950000  0.00000000
O        O    0.78600000  0.53170000  0.83950000  0.00000000
O        O    0.25430000  0.46830000  0.33950000  0.00000000
O        O    0.46830000  0.21400000  0.66050000  0.00000000
O        O    0.53170000  0.78600000  0.33950000  0.00000000
O        O    0.46830000  0.25430000  0.83950000  0.00000000
O        O    0.78600000  0.25430000  0.66050000  0.00000000
O        O    0.53170000  0.74570000  0.16050000  0.00000000
O        O    0.09350000  0.53950000  0.14810000  0.00000000
O        O    0.44600000  0.90650000  0.14810000  0.00000000
O        O    0.55400000  0.46050000  0.64810000  0.00000000
O        O    0.09350000  0.55400000  0.35190000  0.00000000
O        O    0.55400000  0.09350000  0.85190000  0.00000000
O        O    0.90650000  0.46050000  0.85190000  0.00000000
O        O    0.44600000  0.53950000  0.35190000  0.00000000
O        O    0.53950000  0.09350000  0.64810000  0.00000000
O        O    0.46050000  0.90650000  0.35190000  0.00000000
O        O    0.53950000  0.44600000  0.85190000  0.00000000
O        O    0.90650000  0.44600000  0.64810000  0.00000000
O        O    0.46050000  0.55400000  0.14810000  0.00000000
O        O    0.07340000  0.40330000  0.24040000  0.00000000
O        O    0.32990000  0.92660000  0.24040000  0.00000000
O        O    0.67010000  0.59670000  0.74040000  0.00000000
O        O    0.07340000  0.67010000  0.25960000  0.00000000
O        O    0.67010000  0.07340000  0.75960000  0.00000000
O        O    0.92660000  0.59670000  0.75960000  0.00000000
O        O    0.32990000  0.40330000  0.25960000  0.00000000
O        O    0.40330000  0.07340000  0.74040000  0.00000000
O        O    0.59670000  0.92660000  0.25960000  0.00000000
O        O    0.40330000  0.32990000  0.75960000  0.00000000
O        O    0.92660000  0.32990000  0.74040000  0.00000000
O        O    0.59670000  0.67010000  0.24040000  0.00000000
O        O    0.30590000  0.32550000  0.12590000  0.00000000
O        O    0.01960000  0.69410000  0.12590000  0.00000000
O        O    0.98040000  0.67450000  0.62590000  0.00000000
O        O    0.30590000  0.98040000  0.37410000  0.00000000
O        O    0.98040000  0.30590000  0.87410000  0.00000000
O        O    0.69410000  0.67450000  0.87410000  0.00000000
O        O    0.01960000  0.32550000  0.37410000  0.00000000
O        O    0.32550000  0.30590000  0.62590000  0.00000000
O        O    0.67450000  0.69410000  0.37410000  0.00000000
O        O    0.32550000  0.01960000  0.87410000  0.00000000
O        O    0.69410000  0.01960000  0.62590000  0.00000000
O        O    0.67450000  0.98040000  0.12590000  0.00000000
