data_SAPO-47

_cell_length_a  13.73465867
_cell_length_b  13.73465867
_cell_length_c  15.05028950
_cell_angle_alpha  90.00000000
_cell_angle_beta  90.00000000
_cell_angle_gamma  120.00000000


_symmetry_space_group_name_Hall ' P 1'
_symmetry_space_group_name_H-M  'P 1'
_symmetry_Int_Tables_number     1

loop_
_atom_site_label
_atom_site_type_symbol
_atom_site_fract_x
_atom_site_fract_y
_atom_site_fract_z
_atom_site_charge
Al       Al   0.66976667  0.56331333  0.23135333  0.00000000
Al       Al   0.77312000  0.00310000  0.10198000  0.00000000
Al       Al   0.33643333  0.89664667  0.56468667  0.00000000
Al       Al   0.33023333  0.43668667  0.76864667  0.00000000
Al       Al   0.10645333  0.66976667  0.76864667  0.00000000
Al       Al   0.10335333  0.43978667  0.56468667  0.00000000
Al       Al   0.43978667  0.33643333  0.43531333  0.00000000
Al       Al   0.00310000  0.22998000  0.89802000  0.00000000
Al       Al   0.66356667  0.10335333  0.43531333  0.00000000
Al       Al   0.77002000  0.77312000  0.89802000  0.00000000
Al       Al   0.22688000  0.99690000  0.89802000  0.00000000
Al       Al   0.22998000  0.22688000  0.10198000  0.00000000
Al       Al   0.89664667  0.56021333  0.43531333  0.00000000
Al       Al   0.43668667  0.10645333  0.23135333  0.00000000
Al       Al   0.56021333  0.66356667  0.56468667  0.00000000
Al       Al   0.56331333  0.89354667  0.76864667  0.00000000
Al       Al   0.99690000  0.77002000  0.10198000  0.00000000
Al       Al   0.89354667  0.33023333  0.23135333  0.00000000
P        P    0.43941000  0.33661000  0.22814000  0.00000000
P        P    0.76946667  0.77274333  0.10519333  0.00000000
P        P    0.10607667  0.66994333  0.56147333  0.00000000
P        P    0.56059000  0.66339000  0.77186000  0.00000000
P        P    0.10280000  0.43941000  0.77186000  0.00000000
P        P    0.33005667  0.43613333  0.56147333  0.00000000
P        P    0.43613333  0.10607667  0.43852667  0.00000000
P        P    0.77274333  0.00327667  0.89480667  0.00000000
P        P    0.89392333  0.33005667  0.43852667  0.00000000
P        P    0.99672333  0.76946667  0.89480667  0.00000000
P        P    0.23053333  0.22725667  0.89480667  0.00000000
P        P    0.00327667  0.23053333  0.10519333  0.00000000
P        P    0.66994333  0.56386667  0.43852667  0.00000000
P        P    0.66339000  0.10280000  0.22814000  0.00000000
P        P    0.56386667  0.89392333  0.56147333  0.00000000
P        P    0.33661000  0.89720000  0.77186000  0.00000000
P        P    0.22725667  0.99672333  0.10519333  0.00000000
P        P    0.89720000  0.56059000  0.22814000  0.00000000
O        O    0.73363333  0.73796667  0.00836667  0.00000000
O        O    0.66233333  0.06696667  0.32496667  0.00000000
O        O    0.40030000  0.07130000  0.34170000  0.00000000
O        O    0.26636667  0.26203333  0.99163333  0.00000000
O        O    0.99566667  0.73363333  0.99163333  0.00000000
O        O    0.92870000  0.32900000  0.34170000  0.00000000
O        O    0.32900000  0.40030000  0.65830000  0.00000000
O        O    0.06696667  0.40463333  0.67503333  0.00000000
O        O    0.59970000  0.92870000  0.65830000  0.00000000
O        O    0.59536667  0.66233333  0.67503333  0.00000000
O        O    0.33766667  0.93303333  0.67503333  0.00000000
O        O    0.40463333  0.33766667  0.32496667  0.00000000
O        O    0.07130000  0.67100000  0.65830000  0.00000000
O        O    0.26203333  0.99566667  0.00836667  0.00000000
O        O    0.67100000  0.59970000  0.34170000  0.00000000
O        O    0.73796667  0.00433333  0.99163333  0.00000000
O        O    0.93303333  0.59536667  0.32496667  0.00000000
O        O    0.00433333  0.26636667  0.00836667  0.00000000
O        O    0.68093333  0.02266667  0.16716667  0.00000000
O        O    0.32493333  0.01426667  0.16616667  0.00000000
O        O    0.34760000  0.35600000  0.50050000  0.00000000
O        O    0.31906667  0.97733333  0.83283333  0.00000000
O        O    0.65826667  0.68093333  0.83283333  0.00000000
O        O    0.64400000  0.99160000  0.50050000  0.00000000
O        O    0.99160000  0.34760000  0.49950000  0.00000000
O        O    0.01426667  0.68933333  0.83383333  0.00000000
O        O    0.65240000  0.64400000  0.49950000  0.00000000
O        O    0.31066667  0.32493333  0.83383333  0.00000000
O        O    0.67506667  0.98573333  0.83383333  0.00000000
O        O    0.68933333  0.67506667  0.16616667  0.00000000
O        O    0.35600000  0.00840000  0.49950000  0.00000000
O        O    0.97733333  0.65826667  0.16716667  0.00000000
O        O    0.00840000  0.65240000  0.50050000  0.00000000
O        O    0.02266667  0.34173333  0.83283333  0.00000000
O        O    0.98573333  0.31066667  0.16616667  0.00000000
O        O    0.34173333  0.31906667  0.16716667  0.00000000
O        O    0.54173333  0.45006667  0.20406667  0.00000000
O        O    0.75833333  0.87506667  0.12926667  0.00000000
O        O    0.20840000  0.78340000  0.53740000  0.00000000
O        O    0.45826667  0.54993333  0.79593333  0.00000000
O        O    0.09166667  0.54173333  0.79593333  0.00000000
O        O    0.21660000  0.42500000  0.53740000  0.00000000
O        O    0.42500000  0.20840000  0.46260000  0.00000000
O        O    0.87506667  0.11673333  0.87073333  0.00000000
O        O    0.79160000  0.21660000  0.46260000  0.00000000
O        O    0.88326667  0.75833333  0.87073333  0.00000000
O        O    0.24166667  0.12493333  0.87073333  0.00000000
O        O    0.11673333  0.24166667  0.12926667  0.00000000
O        O    0.78340000  0.57500000  0.46260000  0.00000000
O        O    0.54993333  0.09166667  0.20406667  0.00000000
O        O    0.57500000  0.79160000  0.53740000  0.00000000
O        O    0.45006667  0.90833333  0.79593333  0.00000000
O        O    0.12493333  0.88326667  0.12926667  0.00000000
O        O    0.90833333  0.45826667  0.20406667  0.00000000
O        O    0.42333333  0.55796667  0.54756667  0.00000000
O        O    0.53203333  0.75666667  0.78576667  0.00000000
O        O    0.09000000  0.89130000  0.88090000  0.00000000
O        O    0.57666667  0.44203333  0.45243333  0.00000000
O        O    0.86536667  0.42333333  0.45243333  0.00000000
O        O    0.10870000  0.19870000  0.88090000  0.00000000
O        O    0.19870000  0.09000000  0.11910000  0.00000000
O        O    0.75666667  0.22463333  0.21423333  0.00000000
O        O    0.91000000  0.10870000  0.11910000  0.00000000
O        O    0.77536667  0.53203333  0.21423333  0.00000000
O        O    0.46796667  0.24333333  0.21423333  0.00000000
O        O    0.22463333  0.46796667  0.78576667  0.00000000
O        O    0.89130000  0.80130000  0.11910000  0.00000000
O        O    0.44203333  0.86536667  0.54756667  0.00000000
O        O    0.80130000  0.91000000  0.88090000  0.00000000
O        O    0.55796667  0.13463333  0.45243333  0.00000000
O        O    0.24333333  0.77536667  0.78576667  0.00000000
O        O    0.13463333  0.57666667  0.54756667  0.00000000
