data_SAPO-47

_cell_length_a  9.38340000
_cell_length_b  9.38340000
_cell_length_c  9.38340000
_cell_angle_alpha  94.08500000
_cell_angle_beta  94.08500000
_cell_angle_gamma  94.08500000


_symmetry_space_group_name_Hall ' P 1'
_symmetry_space_group_name_H-M  'P 1'
_symmetry_Int_Tables_number     1

loop_
_atom_site_label
_atom_site_type_symbol
_atom_site_fract_x
_atom_site_fract_y
_atom_site_fract_z
_atom_site_charge
Al       Al   0.09888000  0.33196000  0.87510000  0.00000000
Al       Al   0.12490000  0.90112000  0.66804000  0.00000000
Al       Al   0.90112000  0.66804000  0.12490000  0.00000000
Al       Al   0.33196000  0.87510000  0.09888000  0.00000000
Al       Al   0.87510000  0.09888000  0.33196000  0.00000000
Al       Al   0.66804000  0.12490000  0.90112000  0.00000000
P        P    0.33245000  0.10847000  0.87466000  0.00000000
P        P    0.12534000  0.66755000  0.89153000  0.00000000
P        P    0.66755000  0.89153000  0.12534000  0.00000000
P        P    0.10847000  0.87466000  0.33245000  0.00000000
P        P    0.87466000  0.33245000  0.10847000  0.00000000
P        P    0.89153000  0.12534000  0.66755000  0.00000000
O        O    0.25800000  0.72960000  0.98730000  0.00000000
O        O    0.01270000  0.74200000  0.27040000  0.00000000
O        O    0.74200000  0.27040000  0.01270000  0.00000000
O        O    0.72960000  0.98730000  0.25800000  0.00000000
O        O    0.98730000  0.25800000  0.72960000  0.00000000
O        O    0.27040000  0.01270000  0.74200000  0.00000000
O        O    0.15190000  0.85550000  0.49110000  0.00000000
O        O    0.50890000  0.84810000  0.14450000  0.00000000
O        O    0.84810000  0.14450000  0.50890000  0.00000000
O        O    0.85550000  0.49110000  0.15190000  0.00000000
O        O    0.49110000  0.15190000  0.85550000  0.00000000
O        O    0.14450000  0.50890000  0.84810000  0.00000000
O        O    0.25420000  0.24600000  0.88760000  0.00000000
O        O    0.11240000  0.74580000  0.75400000  0.00000000
O        O    0.74580000  0.75400000  0.11240000  0.00000000
O        O    0.24600000  0.88760000  0.25420000  0.00000000
O        O    0.88760000  0.25420000  0.24600000  0.00000000
O        O    0.75400000  0.11240000  0.74580000  0.00000000
O        O    0.02910000  0.01040000  0.31780000  0.00000000
O        O    0.68220000  0.97090000  0.98960000  0.00000000
O        O    0.97090000  0.98960000  0.68220000  0.00000000
O        O    0.01040000  0.31780000  0.02910000  0.00000000
O        O    0.31780000  0.02910000  0.01040000  0.00000000
O        O    0.98960000  0.68220000  0.97090000  0.00000000
