data_SFF

_cell_length_a  11.48530000
_cell_length_b  21.94580000
_cell_length_c  7.38810000
_cell_angle_alpha  90.00000000
_cell_angle_beta  94.70200000
_cell_angle_gamma  90.00000000


_symmetry_space_group_name_Hall ' P 1'
_symmetry_space_group_name_H-M  'P 1'
_symmetry_Int_Tables_number     1

loop_
_atom_site_label
_atom_site_type_symbol
_atom_site_fract_x
_atom_site_fract_y
_atom_site_fract_z
_atom_site_charge
Si       Si   0.72773000  0.47791000  0.06399000  2.05000000
Si       Si   0.72773000  0.02209000  0.06399000  2.05000000
Si       Si   0.27227000  0.97791000  0.93601000  2.05000000
Si       Si   0.27227000  0.52209000  0.93601000  2.05000000
Si       Si   0.86452000  0.12930000  0.89807000  2.05000000
Si       Si   0.86452000  0.37070000  0.89807000  2.05000000
Si       Si   0.13548000  0.62930000  0.10193000  2.05000000
Si       Si   0.13548000  0.87070000  0.10193000  2.05000000
Si       Si   0.76114000  0.17904000  0.52175000  2.05000000
Si       Si   0.76114000  0.32096000  0.52175000  2.05000000
Si       Si   0.23886000  0.67904000  0.47825000  2.05000000
Si       Si   0.23886000  0.82096000  0.47825000  2.05000000
Si       Si   0.60677000  0.06890000  0.40206000  2.05000000
Si       Si   0.60677000  0.43110000  0.40206000  2.05000000
Si       Si   0.39323000  0.56890000  0.59794000  2.05000000
Si       Si   0.39323000  0.93110000  0.59794000  2.05000000
Si       Si   0.96348000  0.18184000  0.25746000  2.05000000
Si       Si   0.96348000  0.31816000  0.25746000  2.05000000
Si       Si   0.03652000  0.68184000  0.74254000  2.05000000
Si       Si   0.03652000  0.81816000  0.74254000  2.05000000
Si       Si   0.94851000  0.54087000  0.23789000  2.05000000
Si       Si   0.94851000  0.95913000  0.23789000  2.05000000
Si       Si   0.05149000  0.04087000  0.76211000  2.05000000
Si       Si   0.05149000  0.45913000  0.76211000  2.05000000
Si       Si   0.88947000  0.56798000  0.63492000  2.05000000
Si       Si   0.88947000  0.93202000  0.63492000  2.05000000
Si       Si   0.11053000  0.06798000  0.36508000  2.05000000
Si       Si   0.11053000  0.43202000  0.36508000  2.05000000
Si       Si   0.64052000  0.52838000  0.70796000  2.05000000
Si       Si   0.64052000  0.97162000  0.70796000  2.05000000
Si       Si   0.35948000  0.02838000  0.29204000  2.05000000
Si       Si   0.35948000  0.47162000  0.29204000  2.05000000
O        O    0.77422000  0.41806000  0.97258000 -1.02500000
O        O    0.77422000  0.08194000  0.97258000 -1.02500000
O        O    0.22578000  0.91806000  0.02742000 -1.02500000
O        O    0.22578000  0.58194000  0.02742000 -1.02500000
O        O    0.67115000  0.46241000  0.24526000 -1.02500000
O        O    0.67115000  0.03759000  0.24526000 -1.02500000
O        O    0.32885000  0.96241000  0.75474000 -1.02500000
O        O    0.32885000  0.53759000  0.75474000 -1.02500000
O        O    0.63618000  0.51059000  0.91911000 -1.02500000
O        O    0.63618000  0.98941000  0.91911000 -1.02500000
O        O    0.36382000  0.01059000  0.08089000 -1.02500000
O        O    0.36382000  0.48941000  0.08089000 -1.02500000
O        O    0.83885000  0.52349000  0.10144000 -1.02500000
O        O    0.83885000  0.97651000  0.10144000 -1.02500000
O        O    0.16115000  0.02349000  0.89856000 -1.02500000
O        O    0.16115000  0.47651000  0.89856000 -1.02500000
O        O    0.97854000  0.09436000  0.84486000 -1.02500000
O        O    0.97854000  0.40564000  0.84486000 -1.02500000
O        O    0.02146000  0.59436000  0.15514000 -1.02500000
O        O    0.02146000  0.90564000  0.15514000 -1.02500000
O        O    0.80087000  0.16360000  0.72652000 -1.02500000
O        O    0.80087000  0.33640000  0.72652000 -1.02500000
O        O    0.19913000  0.66360000  0.27348000 -1.02500000
O        O    0.19913000  0.83640000  0.27348000 -1.02500000
O        O    0.90318000  0.17737000  0.05471000 -1.02500000
O        O    0.90318000  0.32263000  0.05471000 -1.02500000
O        O    0.09682000  0.67737000  0.94529000 -1.02500000
O        O    0.09682000  0.82263000  0.94529000 -1.02500000
O        O    0.72123000  0.25000000  0.50502000 -1.02500000
O        O    0.27877000  0.75000000  0.49498000 -1.02500000
O        O    0.65456000  0.13729000  0.44181000 -1.02500000
O        O    0.65456000  0.36271000  0.44181000 -1.02500000
O        O    0.34544000  0.63729000  0.55819000 -1.02500000
O        O    0.34544000  0.86271000  0.55819000 -1.02500000
O        O    0.86756000  0.16902000  0.39761000 -1.02500000
O        O    0.86756000  0.33098000  0.39761000 -1.02500000
O        O    0.13244000  0.66902000  0.60239000 -1.02500000
O        O    0.13244000  0.83098000  0.60239000 -1.02500000
O        O    0.63033000  0.03179000  0.58782000 -1.02500000
O        O    0.63033000  0.46821000  0.58782000 -1.02500000
O        O    0.36967000  0.53179000  0.41218000 -1.02500000
O        O    0.36967000  0.96821000  0.41218000 -1.02500000
O        O    0.46916000  0.07271000  0.34611000 -1.02500000
O        O    0.46916000  0.42729000  0.34611000 -1.02500000
O        O    0.53084000  0.57271000  0.65389000 -1.02500000
O        O    0.53084000  0.92729000  0.65389000 -1.02500000
O        O    0.06491000  0.13319000  0.29097000 -1.02500000
O        O    0.06491000  0.36681000  0.29097000 -1.02500000
O        O    0.93509000  0.63319000  0.70903000 -1.02500000
O        O    0.93509000  0.86681000  0.70903000 -1.02500000
O        O    0.01593000  0.25000000  0.28895000 -1.02500000
O        O    0.98407000  0.75000000  0.71105000 -1.02500000
O        O    0.03521000  0.48471000  0.26620000 -1.02500000
O        O    0.03521000  0.01529000  0.26620000 -1.02500000
O        O    0.96479000  0.98471000  0.73380000 -1.02500000
O        O    0.96479000  0.51529000  0.73380000 -1.02500000
O        O    0.90209000  0.56329000  0.42173000 -1.02500000
O        O    0.90209000  0.93671000  0.42173000 -1.02500000
O        O    0.09791000  0.06329000  0.57827000 -1.02500000
O        O    0.09791000  0.43671000  0.57827000 -1.02500000
O        O    0.75629000  0.56267000  0.67274000 -1.02500000
O        O    0.75629000  0.93733000  0.67274000 -1.02500000
O        O    0.24371000  0.06267000  0.32726000 -1.02500000
O        O    0.24371000  0.43733000  0.32726000 -1.02500000
