data_SOD

_cell_length_a  8.84800000
_cell_length_b  8.84800000
_cell_length_c  8.84800000
_cell_angle_alpha  90.00000000
_cell_angle_beta  90.00000000
_cell_angle_gamma  90.00000000


_symmetry_space_group_name_Hall ' P 1'
_symmetry_space_group_name_H-M  'P 1'
_symmetry_Int_Tables_number     1

loop_
_atom_site_label
_atom_site_type_symbol
_atom_site_fract_x
_atom_site_fract_y
_atom_site_fract_z
_atom_site_charge
Si       Si   0.00000000  0.50000000  0.75000000  2.05000000
Si       Si   0.75000000  0.00000000  0.50000000  2.05000000
Si       Si   0.50000000  0.75000000  0.00000000  2.05000000
Si       Si   0.50000000  0.25000000  0.00000000  2.05000000
Si       Si   0.00000000  0.50000000  0.25000000  2.05000000
Si       Si   0.25000000  0.00000000  0.50000000  2.05000000
Al       Al   0.50000000  0.00000000  0.75000000  1.75000000
Al       Al   0.75000000  0.50000000  0.00000000  1.75000000
Al       Al   0.00000000  0.75000000  0.50000000  1.75000000
Al       Al   0.00000000  0.25000000  0.50000000  1.75000000
Al       Al   0.50000000  0.00000000  0.25000000  1.75000000
Al       Al   0.25000000  0.50000000  0.00000000  1.75000000
O        O    0.14900000  0.86340000  0.56620000 -1.02500000
O        O    0.85100000  0.86340000  0.43380000 -1.02500000
O        O    0.36340000  0.35100000  0.93380000 -1.02500000
O        O    0.35100000  0.06620000  0.63660000 -1.02500000
O        O    0.85100000  0.13660000  0.56620000 -1.02500000
O        O    0.63660000  0.64900000  0.93380000 -1.02500000
O        O    0.43380000  0.85100000  0.86340000 -1.02500000
O        O    0.35100000  0.93380000  0.36340000 -1.02500000
O        O    0.86340000  0.56620000  0.14900000 -1.02500000
O        O    0.56620000  0.14900000  0.86340000 -1.02500000
O        O    0.64900000  0.93380000  0.63660000 -1.02500000
O        O    0.93380000  0.63660000  0.64900000 -1.02500000
O        O    0.14900000  0.13660000  0.43380000 -1.02500000
O        O    0.86340000  0.43380000  0.85100000 -1.02500000
O        O    0.13660000  0.43380000  0.14900000 -1.02500000
O        O    0.06620000  0.36340000  0.64900000 -1.02500000
O        O    0.63660000  0.35100000  0.06620000 -1.02500000
O        O    0.43380000  0.14900000  0.13660000 -1.02500000
O        O    0.13660000  0.56620000  0.85100000 -1.02500000
O        O    0.06620000  0.63660000  0.35100000 -1.02500000
O        O    0.93380000  0.36340000  0.35100000 -1.02500000
O        O    0.64900000  0.06620000  0.36340000 -1.02500000
O        O    0.56620000  0.85100000  0.13660000 -1.02500000
O        O    0.36340000  0.64900000  0.06620000 -1.02500000
