data_STF

_cell_length_a  7.37700000
_cell_length_b  11.41140000
_cell_length_c  11.52680000
_cell_angle_alpha  104.89200000
_cell_angle_beta  94.66100000
_cell_angle_gamma  96.20600000


_symmetry_space_group_name_Hall ' P 1'
_symmetry_space_group_name_H-M  'P 1'
_symmetry_Int_Tables_number     1

loop_
_atom_site_label
_atom_site_type_symbol
_atom_site_fract_x
_atom_site_fract_y
_atom_site_fract_z
_atom_site_charge
Si       Si   0.38894000  0.63981000  0.64370000  0.00000000
Si       Si   0.61106000  0.36019000  0.35630000  0.00000000
Si       Si   0.78082000  0.58779000  0.57148000  0.00000000
Si       Si   0.21918000  0.41221000  0.42852000  0.00000000
Si       Si   0.59034000  0.85791000  0.35795000  0.00000000
Si       Si   0.40966000  0.14209000  0.64205000  0.00000000
Si       Si   0.42852000  0.63819000  0.14322000  0.00000000
Si       Si   0.57148000  0.36181000  0.85678000  0.00000000
Si       Si   0.32849000  0.86604000  0.55849000  0.00000000
Si       Si   0.67151000  0.13396000  0.44151000  0.00000000
Si       Si   0.95364000  0.76141000  0.43269000  0.00000000
Si       Si   0.04636000  0.23859000  0.56731000  0.00000000
Si       Si   0.07649000  0.53999000  0.24204000  0.00000000
Si       Si   0.92351000  0.46001000  0.75796000  0.00000000
Si       Si   0.69624000  0.44032000  0.12532000  0.00000000
Si       Si   0.30376000  0.55968000  0.87468000  0.00000000
O        O    0.59933000  0.63498000  0.62291000  0.00000000
O        O    0.40067000  0.36502000  0.37709000  0.00000000
O        O    0.32886000  0.76832000  0.63539000  0.00000000
O        O    0.67114000  0.23168000  0.36461000  0.00000000
O        O    0.26983000  0.52982000  0.54230000  0.00000000
O        O    0.73017000  0.47018000  0.45770000  0.00000000
O        O    0.35625000  0.62528000  0.77490000  0.00000000
O        O    0.64375000  0.37472000  0.22510000  0.00000000
O        O    0.89266000  0.69327000  0.52957000  0.00000000
O        O    0.10734000  0.30673000  0.47043000  0.00000000
O        O    0.90092000  0.55110000  0.67477000  0.00000000
O        O    0.09908000  0.44890000  0.32523000  0.00000000
O        O    0.49210000  0.77275000  0.22995000  0.00000000
O        O    0.50790000  0.22725000  0.77005000  0.00000000
O        O    0.46770000  0.83412000  0.45926000  0.00000000
O        O    0.53230000  0.16588000  0.54074000  0.00000000
O        O    0.79101000  0.82361000  0.38442000  0.00000000
O        O    0.20899000  0.17639000  0.61558000  0.00000000
O        O    0.60402000  0.99822000  0.35523000  0.00000000
O        O    0.39598000  0.00178000  0.64477000  0.00000000
O        O    0.60173000  0.56293000  0.14212000  0.00000000
O        O    0.39827000  0.43707000  0.85788000  0.00000000
O        O    0.37521000  0.64783000  0.00809000  0.00000000
O        O    0.62479000  0.35217000  0.99191000  0.00000000
O        O    0.26293000  0.56945000  0.18881000  0.00000000
O        O    0.73707000  0.43055000  0.81119000  0.00000000
O        O    0.12685000  0.86371000  0.49452000  0.00000000
O        O    0.87315000  0.13629000  0.50548000  0.00000000
O        O    0.01960000  0.66618000  0.32055000  0.00000000
O        O    0.98040000  0.33382000  0.67945000  0.00000000
O        O    0.91454000  0.47782000  0.13416000  0.00000000
O        O    0.08546000  0.52218000  0.86584000  0.00000000
