data_TON

_cell_length_a  11.13023226
_cell_length_b  11.13023226
_cell_length_c  5.03800000
_cell_angle_alpha  90.00000000
_cell_angle_beta  90.00000000
_cell_angle_gamma  102.98990279


_symmetry_space_group_name_Hall ' P 1'
_symmetry_space_group_name_H-M  'P 1'
_symmetry_Int_Tables_number     1

loop_
_atom_site_label
_atom_site_type_symbol
_atom_site_fract_x
_atom_site_fract_y
_atom_site_fract_z
_atom_site_charge
Si       Si   0.72630000  0.27370000  0.25000000  0.00000000
Si       Si   0.27370000  0.72630000  0.75000000  0.00000000
Si       Si   0.62320000  0.37680000  0.75350000  0.00000000
Si       Si   0.37680000  0.62320000  0.25350000  0.00000000
Si       Si   0.75310000  0.65670000  0.77350000  0.00000000
Si       Si   0.65670000  0.75310000  0.27350000  0.00000000
Si       Si   0.34330000  0.24690000  0.77350000  0.00000000
Si       Si   0.24690000  0.34330000  0.27350000  0.00000000
Si       Si   0.00570000  0.58330000  0.85550000  0.00000000
Si       Si   0.58330000  0.00570000  0.35550000  0.00000000
Si       Si   0.41670000  0.99430000  0.85550000  0.00000000
Si       Si   0.99430000  0.41670000  0.35550000  0.00000000
O        O    0.33450000  0.48090000  0.30230000  0.00000000
O        O    0.48090000  0.33450000  0.80230000  0.00000000
O        O    0.51910000  0.66550000  0.30230000  0.00000000
O        O    0.66550000  0.51910000  0.80230000  0.00000000
O        O    0.12820000  0.68340000  0.79320000  0.00000000
O        O    0.68340000  0.12820000  0.29320000  0.00000000
O        O    0.31660000  0.87180000  0.79320000  0.00000000
O        O    0.87180000  0.31660000  0.29320000  0.00000000
O        O    0.10770000  0.34990000  0.33610000  0.00000000
O        O    0.34990000  0.10770000  0.83610000  0.00000000
O        O    0.65010000  0.89230000  0.33610000  0.00000000
O        O    0.89230000  0.65010000  0.83610000  0.00000000
O        O    0.25120000  0.29120000  0.97660000  0.00000000
O        O    0.29120000  0.25120000  0.47660000  0.00000000
O        O    0.70880000  0.74880000  0.97660000  0.00000000
O        O    0.74880000  0.70880000  0.47660000  0.00000000
O        O    0.98790000  0.47110000  0.64650000  0.00000000
O        O    0.47110000  0.98790000  0.14650000  0.00000000
O        O    0.52890000  0.01210000  0.64650000  0.00000000
O        O    0.01210000  0.52890000  0.14650000  0.00000000
O        O    0.69380000  0.30620000  0.95590000  0.00000000
O        O    0.30620000  0.69380000  0.45590000  0.00000000
O        O    0.65500000  0.34500000  0.45070000  0.00000000
O        O    0.34500000  0.65500000  0.95070000  0.00000000
