data_TON

_cell_length_a  13.85900000
_cell_length_b  17.42000000
_cell_length_c  5.03800000
_cell_angle_alpha  90.00000000
_cell_angle_beta  90.00000000
_cell_angle_gamma  90.00000000


_symmetry_space_group_name_Hall ' P 1'
_symmetry_space_group_name_H-M  'P 1'
_symmetry_Int_Tables_number     1

loop_
_atom_site_label
_atom_site_type_symbol
_atom_site_fract_x
_atom_site_fract_y
_atom_site_fract_z
_atom_site_charge
Si       Si   0.00000000  0.72630000  0.75000000  2.05000000
Si       Si   0.00000000  0.27370000  0.25000000  2.05000000
Si       Si   0.50000000  0.77370000  0.25000000  2.05000000
Si       Si   0.50000000  0.22630000  0.75000000  2.05000000
Si       Si   0.00000000  0.62320000  0.24650000  2.05000000
Si       Si   0.00000000  0.37680000  0.74650000  2.05000000
Si       Si   0.50000000  0.87680000  0.74650000  2.05000000
Si       Si   0.50000000  0.12320000  0.24650000  2.05000000
Si       Si   0.20490000  0.54820000  0.22650000  2.05000000
Si       Si   0.70490000  0.95180000  0.72650000  2.05000000
Si       Si   0.29510000  0.04820000  0.22650000  2.05000000
Si       Si   0.20490000  0.45180000  0.72650000  2.05000000
Si       Si   0.29510000  0.95180000  0.72650000  2.05000000
Si       Si   0.70490000  0.04820000  0.22650000  2.05000000
Si       Si   0.79510000  0.54820000  0.22650000  2.05000000
Si       Si   0.79510000  0.45180000  0.72650000  2.05000000
Si       Si   0.29450000  0.71120000  0.14450000  2.05000000
Si       Si   0.79450000  0.78880000  0.64450000  2.05000000
Si       Si   0.20550000  0.21120000  0.14450000  2.05000000
Si       Si   0.29450000  0.28880000  0.64450000  2.05000000
Si       Si   0.20550000  0.78880000  0.64450000  2.05000000
Si       Si   0.79450000  0.21120000  0.14450000  2.05000000
Si       Si   0.70550000  0.71120000  0.14450000  2.05000000
Si       Si   0.70550000  0.28880000  0.64450000  2.05000000
O        O    0.40770000  0.92680000  0.69770000 -1.02500000
O        O    0.90770000  0.57320000  0.19770000 -1.02500000
O        O    0.09230000  0.42680000  0.69770000 -1.02500000
O        O    0.40770000  0.07320000  0.19770000 -1.02500000
O        O    0.09230000  0.57320000  0.19770000 -1.02500000
O        O    0.90770000  0.42680000  0.69770000 -1.02500000
O        O    0.59230000  0.92680000  0.69770000 -1.02500000
O        O    0.59230000  0.07320000  0.19770000 -1.02500000
O        O    0.40580000  0.72240000  0.20680000 -1.02500000
O        O    0.90580000  0.77760000  0.70680000 -1.02500000
O        O    0.09420000  0.22240000  0.20680000 -1.02500000
O        O    0.40580000  0.27760000  0.70680000 -1.02500000
O        O    0.09420000  0.77760000  0.70680000 -1.02500000
O        O    0.90580000  0.22240000  0.20680000 -1.02500000
O        O    0.59420000  0.72240000  0.20680000 -1.02500000
O        O    0.59420000  0.27760000  0.70680000 -1.02500000
O        O    0.22880000  0.87890000  0.66390000 -1.02500000
O        O    0.72880000  0.62110000  0.16390000 -1.02500000
O        O    0.27120000  0.37890000  0.66390000 -1.02500000
O        O    0.22880000  0.12110000  0.16390000 -1.02500000
O        O    0.27120000  0.62110000  0.16390000 -1.02500000
O        O    0.72880000  0.37890000  0.66390000 -1.02500000
O        O    0.77120000  0.87890000  0.66390000 -1.02500000
O        O    0.77120000  0.12110000  0.16390000 -1.02500000
O        O    0.27120000  0.98000000  0.02340000 -1.02500000
O        O    0.77120000  0.52000000  0.52340000 -1.02500000
O        O    0.22880000  0.48000000  0.02340000 -1.02500000
O        O    0.27120000  0.02000000  0.52340000 -1.02500000
O        O    0.22880000  0.52000000  0.52340000 -1.02500000
O        O    0.77120000  0.48000000  0.02340000 -1.02500000
O        O    0.72880000  0.98000000  0.02340000 -1.02500000
O        O    0.72880000  0.02000000  0.52340000 -1.02500000
O        O    0.22950000  0.75840000  0.35350000 -1.02500000
O        O    0.72950000  0.74160000  0.85350000 -1.02500000
O        O    0.27050000  0.25840000  0.35350000 -1.02500000
O        O    0.22950000  0.24160000  0.85350000 -1.02500000
O        O    0.27050000  0.74160000  0.85350000 -1.02500000
O        O    0.72950000  0.25840000  0.35350000 -1.02500000
O        O    0.77050000  0.75840000  0.35350000 -1.02500000
O        O    0.77050000  0.24160000  0.85350000 -1.02500000
O        O    0.00000000  0.69380000  0.04410000 -1.02500000
O        O    0.00000000  0.30620000  0.54410000 -1.02500000
O        O    0.50000000  0.80620000  0.54410000 -1.02500000
O        O    0.50000000  0.19380000  0.04410000 -1.02500000
O        O    0.00000000  0.65500000  0.54930000 -1.02500000
O        O    0.00000000  0.34500000  0.04930000 -1.02500000
O        O    0.50000000  0.84500000  0.04930000 -1.02500000
O        O    0.50000000  0.15500000  0.54930000 -1.02500000
