data_VFI

_cell_length_a  18.97520000
_cell_length_b  18.97520000
_cell_length_c  8.10440000
_cell_angle_alpha  90.00000000
_cell_angle_beta  90.00000000
_cell_angle_gamma  120.00000000


_symmetry_space_group_name_Hall ' P 1'
_symmetry_space_group_name_H-M  'P 1'
_symmetry_Int_Tables_number     1

loop_
_atom_site_label
_atom_site_type_symbol
_atom_site_fract_x
_atom_site_fract_y
_atom_site_fract_z
_atom_site_charge
Al       Al   0.99900000  0.61400000  0.73900000  0.00000000
Al       Al   0.61500000  0.00100000  0.73900000  0.00000000
Al       Al   0.38500000  0.99900000  0.23900000  0.00000000
Al       Al   0.00100000  0.38600000  0.23900000  0.00000000
Al       Al   0.61400000  0.61500000  0.23900000  0.00000000
Al       Al   0.38600000  0.38500000  0.73900000  0.00000000
Al       Al   0.82700000  0.35300000  0.70400000  0.00000000
Al       Al   0.52600000  0.17300000  0.70400000  0.00000000
Al       Al   0.47400000  0.82700000  0.20400000  0.00000000
Al       Al   0.17300000  0.64700000  0.20400000  0.00000000
Al       Al   0.35300000  0.52600000  0.20400000  0.00000000
Al       Al   0.64700000  0.47400000  0.70400000  0.00000000
Al       Al   0.16900000  0.51500000  0.69800000  0.00000000
Al       Al   0.34600000  0.83100000  0.69800000  0.00000000
Al       Al   0.65400000  0.16900000  0.19800000  0.00000000
Al       Al   0.83100000  0.48500000  0.19800000  0.00000000
Al       Al   0.51500000  0.34600000  0.19800000  0.00000000
Al       Al   0.48500000  0.65400000  0.69800000  0.00000000
P        P    0.99900000  0.44900000  0.85800000  0.00000000
P        P    0.45000000  0.00100000  0.85800000  0.00000000
P        P    0.55000000  0.99900000  0.35800000  0.00000000
P        P    0.00100000  0.55100000  0.35800000  0.00000000
P        P    0.44900000  0.45000000  0.35800000  0.00000000
P        P    0.55100000  0.55000000  0.85800000  0.00000000
P        P    0.81500000  0.50400000  0.82000000  0.00000000
P        P    0.68900000  0.18500000  0.82000000  0.00000000
P        P    0.31100000  0.81500000  0.32000000  0.00000000
P        P    0.18500000  0.49600000  0.32000000  0.00000000
P        P    0.50400000  0.68900000  0.32000000  0.00000000
P        P    0.49600000  0.31100000  0.82000000  0.00000000
P        P    0.18500000  0.67800000  0.80900000  0.00000000
P        P    0.49300000  0.81500000  0.80900000  0.00000000
P        P    0.50700000  0.18500000  0.30900000  0.00000000
P        P    0.81500000  0.32200000  0.30900000  0.00000000
P        P    0.67800000  0.49300000  0.30900000  0.00000000
P        P    0.32200000  0.50700000  0.80900000  0.00000000
O        O    0.00100000  0.53100000  0.83900000  0.00000000
O        O    0.53000000  0.99900000  0.83900000  0.00000000
O        O    0.47000000  0.00100000  0.33900000  0.00000000
O        O    0.99900000  0.46900000  0.33900000  0.00000000
O        O    0.53100000  0.53000000  0.33900000  0.00000000
O        O    0.46900000  0.47000000  0.83900000  0.00000000
O        O    0.00900000  0.57800000  0.53700000  0.00000000
O        O    0.56900000  0.99100000  0.53700000  0.00000000
O        O    0.43100000  0.00900000  0.03700000  0.00000000
O        O    0.99100000  0.42200000  0.03700000  0.00000000
O        O    0.57800000  0.56900000  0.03700000  0.00000000
O        O    0.42200000  0.43100000  0.53700000  0.00000000
O        O    0.88800000  0.56600000  0.72300000  0.00000000
O        O    0.67800000  0.11200000  0.72300000  0.00000000
O        O    0.32200000  0.88800000  0.22300000  0.00000000
O        O    0.11200000  0.43400000  0.22300000  0.00000000
O        O    0.56600000  0.67800000  0.22300000  0.00000000
O        O    0.43400000  0.32200000  0.72300000  0.00000000
O        O    0.11100000  0.68100000  0.75500000  0.00000000
O        O    0.57000000  0.88900000  0.75500000  0.00000000
O        O    0.43000000  0.11100000  0.25500000  0.00000000
O        O    0.88900000  0.31900000  0.25500000  0.00000000
O        O    0.68100000  0.57000000  0.25500000  0.00000000
O        O    0.31900000  0.43000000  0.75500000  0.00000000
O        O    0.92600000  0.38600000  0.76400000  0.00000000
O        O    0.46000000  0.07400000  0.76400000  0.00000000
O        O    0.54000000  0.92600000  0.26400000  0.00000000
O        O    0.07400000  0.61400000  0.26400000  0.00000000
O        O    0.38600000  0.46000000  0.26400000  0.00000000
O        O    0.61400000  0.54000000  0.76400000  0.00000000
O        O    0.07200000  0.45300000  0.77800000  0.00000000
O        O    0.38100000  0.92800000  0.77800000  0.00000000
O        O    0.61900000  0.07200000  0.27800000  0.00000000
O        O    0.92800000  0.54700000  0.27800000  0.00000000
O        O    0.45300000  0.38100000  0.27800000  0.00000000
O        O    0.54700000  0.61900000  0.77800000  0.00000000
O        O    0.76900000  0.25700000  0.78000000  0.00000000
O        O    0.48800000  0.23100000  0.78000000  0.00000000
O        O    0.51200000  0.76900000  0.28000000  0.00000000
O        O    0.23100000  0.74300000  0.28000000  0.00000000
O        O    0.25700000  0.48800000  0.28000000  0.00000000
O        O    0.74300000  0.51200000  0.78000000  0.00000000
O        O    0.79400000  0.41600000  0.78000000  0.00000000
O        O    0.62200000  0.20600000  0.78000000  0.00000000
O        O    0.37800000  0.79400000  0.28000000  0.00000000
O        O    0.20600000  0.58400000  0.28000000  0.00000000
O        O    0.41600000  0.62200000  0.28000000  0.00000000
O        O    0.58400000  0.37800000  0.78000000  0.00000000
O        O    0.82500000  0.35100000  0.48500000  0.00000000
O        O    0.52600000  0.17500000  0.48500000  0.00000000
O        O    0.47400000  0.82500000  0.98500000  0.00000000
O        O    0.17500000  0.64900000  0.98500000  0.00000000
O        O    0.35100000  0.52600000  0.98500000  0.00000000
O        O    0.64900000  0.47400000  0.48500000  0.00000000
O        O    0.83200000  0.52100000  0.00000000  0.00000000
O        O    0.68900000  0.16800000  0.00000000  0.00000000
O        O    0.31100000  0.83200000  0.50000000  0.00000000
O        O    0.16800000  0.47900000  0.50000000  0.00000000
O        O    0.52100000  0.68900000  0.50000000  0.00000000
O        O    0.47900000  0.31100000  0.00000000  0.00000000
O        O    0.19500000  0.62000000  0.69800000  0.00000000
O        O    0.42500000  0.80500000  0.69800000  0.00000000
O        O    0.57500000  0.19500000  0.19800000  0.00000000
O        O    0.80500000  0.38000000  0.19800000  0.00000000
O        O    0.62000000  0.42500000  0.19800000  0.00000000
O        O    0.38000000  0.57500000  0.69800000  0.00000000
O        O    0.23600000  0.49700000  0.81500000  0.00000000
O        O    0.26100000  0.76400000  0.81500000  0.00000000
O        O    0.73900000  0.23600000  0.31500000  0.00000000
O        O    0.76400000  0.50300000  0.31500000  0.00000000
O        O    0.49700000  0.26100000  0.31500000  0.00000000
O        O    0.50300000  0.73900000  0.81500000  0.00000000
